# CIF file generated by openbabel 3.1.1, see https://openbabel.org
data_I
_chemical_name_common '3.01-2.aims'
_cell_length_a 39.9031
_cell_length_b 39.9031
_cell_length_c 39.9031
_cell_angle_alpha 90
_cell_angle_beta 90
_cell_angle_gamma 90
loop_
    _atom_site_label
    _atom_site_type_symbol
    _atom_site_fract_x
    _atom_site_fract_y
    _atom_site_fract_z
    _atom_site_occupancy
    N0       N        0.02667    0.02858    0.08017    1.000
    N1       N        0.00084    0.08906    0.07024    1.000
    Si2      Si       0.03624    0.10148    0.04815    1.000
    Si3      Si       0.99214    0.05025    0.09175    1.000
    Si4      Si       0.02529    0.17442    0.07329    1.000
    Si5      Si       0.03578    0.24955    0.03646    1.000
    N6       N        0.03197    0.20667    0.04520    1.000
    N7       N        0.03531    0.18664    0.11317    1.000
    N8       N        0.04326    0.14457    0.04697    1.000
    Si9      Si       0.04993    0.17628    0.01759    1.000
    N10      N        0.01814    0.12054    0.12638    1.000
    N11      N        0.02681    0.02190    0.20461    1.000
    Si12     Si       0.02049    0.08358    0.14919    1.000
    N13      N        0.01718    0.09567    0.19246    1.000
    Si14     Si       0.99165    0.02379    0.22877    1.000
    N15      N        0.98992    0.05657    0.13761    1.000
    Si16     Si       0.03954    0.13398    0.20192    1.000
    N17      N        0.99994    0.15699    0.19877    1.000
    N18      N        0.98952    0.20737    0.23352    1.000
    Si19     Si       0.02274    0.21892    0.13819    1.000
    N20      N        0.03667    0.21573    0.18046    1.000
    Si21     Si       0.99817    0.20065    0.19268    1.000
    Si22     Si       0.02416    0.04659    0.29256    1.000
    N23      N        0.00187    0.05612    0.25494    1.000
    N24      N        0.99781    0.05739    0.32493    1.000
    N25      N        0.00351    0.13056    0.34583    1.000
    Si26     Si       0.03074    0.16627    0.34196    1.000
    Si27     Si       0.01864    0.19572    0.27239    1.000
    N28      N        0.99722    0.22901    0.29451    1.000
    N29      N        0.99839    0.19275    0.35537    1.000
    N30      N        0.04462    0.17147    0.30021    1.000
    Si31     Si       0.99122    0.24560    0.25402    1.000
    N32      N        0.00133    0.08887    0.40977    1.000
    Si33     Si       0.04405    0.08284    0.40508    1.000
    N34      N        0.02839    0.14198    0.44270    1.000
    Si35     Si       0.04431    0.15676    0.48174    1.000
    Si36     Si       0.00081    0.23009    0.37974    1.000
    Si37     Si       0.99718    0.21092    0.45321    1.000
    N38      N        0.01960    0.21817    0.41627    1.000
    N39      N        0.01946    0.19258    0.48415    1.000
    N40      N        0.00871    0.09962    0.56527    1.000
    Si41     Si       0.02340    0.02672    0.52099    1.000
    Si42     Si       0.03356    0.10132    0.52711    1.000
    Si43     Si       0.03758    0.10440    0.59647    1.000
    N44      N        0.00982    0.06655    0.50955    1.000
    N45      N        0.02374    0.01469    0.56201    1.000
    N46      N        0.02055    0.14031    0.51379    1.000
    N47      N        0.00195    0.23879    0.53698    1.000
    Si48     Si       0.03506    0.23064    0.56518    1.000
    Si49     Si       0.00637    0.18089    0.52573    1.000
    N50      N        0.01178    0.24304    0.60240    1.000
    N51      N        0.03604    0.18618    0.55725    1.000
    N52      N        0.01152    0.08289    0.62807    1.000
    Si53     Si       0.00547    0.10252    0.70751    1.000
    N54      N        0.00744    0.02238    0.65906    1.000
    Si55     Si       0.03755    0.05337    0.64758    1.000
    N56      N        0.03849    0.07910    0.68293    1.000
    N57      N        0.04092    0.12325    0.72406    1.000
    N58      N        0.99274    0.13040    0.67274    1.000
    Si59     Si       0.98979    0.22081    0.73777    1.000
    N60      N        0.02583    0.24743    0.74128    1.000
    N61      N        0.99977    0.18237    0.72269    1.000
    Si62     Si       0.04206    0.16696    0.72147    1.000
    Si63     Si       0.02079    0.15900    0.64977    1.000
    Si64     Si       0.02583    0.22749    0.63953    1.000
    N65      N        0.01905    0.25223    0.67389    1.000
    N66      N        0.99787    0.19471    0.64218    1.000
    N67      N        0.04771    0.13894    0.62180    1.000
    Si68     Si       0.02815    0.04636    0.85910    1.000
    N69      N        0.02387    0.08857    0.84496    1.000
    N70      N        0.03826    0.02530    0.76455    1.000
    Si71     Si       0.99845    0.03038    0.74904    1.000
    Si72     Si       0.02875    0.24280    0.83410    1.000
    N73      N        0.02285    0.20182    0.83742    1.000
    Si74     Si       0.01877    0.16012    0.82546    1.000
    N75      N        0.99863    0.14554    0.86338    1.000
    N76      N        0.05445    0.14112    0.81455    1.000
    N77      N        0.04142    0.10877    0.93724    1.000
    Si78     Si       0.02107    0.08764    0.97263    1.000
    N79      N        0.00331    0.05257    0.95869    1.000
    Si80     Si       0.99956    0.01252    0.97788    1.000
    N81      N        0.04513    0.05075    0.89777    1.000
    N82      N        0.99172    0.15357    0.93157    1.000
    Si83     Si       0.99953    0.17640    0.89473    1.000
    N84      N        0.02987    0.16319    0.98217    1.000
    Si85     Si       0.02327    0.23487    0.90967    1.000
    Si86     Si       0.03940    0.15422    0.94011    1.000
    N87      N        0.03865    0.19032    0.90919    1.000
    N88      N        0.99819    0.30585    0.09028    1.000
    N89      N        0.00245    0.37834    0.07964    1.000
    N90      N        0.99632    0.26394    0.02782    1.000
    Si91     Si       0.00001    0.34643    0.11554    1.000
    Si92     Si       0.04402    0.29302    0.10573    1.000
    N93      N        0.98714    0.33708    0.02625    1.000
    Si94     Si       0.01987    0.42104    0.03593    1.000
    N95      N        0.00511    0.46244    0.04058    1.000
    Si96     Si       0.00338    0.41102    0.11027    1.000
    Si97     Si       0.02303    0.50078    0.03061    1.000
    N98      N        0.03990    0.43306    0.11078    1.000
    N99      N        0.03223    0.38968    0.00476    1.000
    N100     N        0.01789    0.26618    0.22790    1.000
    Si101    Si       0.02046    0.29468    0.19446    1.000
    N102     N        0.03654    0.33542    0.20353    1.000
    Si103    Si       0.04511    0.36629    0.23447    1.000
    N104     N        0.03874    0.32959    0.13159    1.000
    N105     N        0.98573    0.29383    0.16986    1.000
    N106     N        0.02262    0.25948    0.12432    1.000
    N107     N        0.99764    0.38351    0.14285    1.000
    Si108    Si       0.04651    0.42294    0.18876    1.000
    N109     N        0.02119    0.39726    0.21246    1.000
    Si110    Si       0.01369    0.49157    0.15776    1.000
    N111     N        0.01609    0.45236    0.17747    1.000
    N112     N        0.99057    0.46277    0.24218    1.000
    N113     N        0.00937    0.29642    0.29532    1.000
    N114     N        0.02664    0.35807    0.27210    1.000
    N115     N        0.01103    0.26459    0.35435    1.000
    Si116    Si       0.04136    0.32543    0.29797    1.000
    Si117    Si       0.02551    0.30314    0.36693    1.000
    N118     N        0.04454    0.33187    0.34117    1.000
    Si119    Si       0.99958    0.38699    0.29408    1.000
    N120     N        0.02673    0.48517    0.29290    1.000
    N121     N        0.01473    0.42003    0.31835    1.000
    Si122    Si       0.00127    0.46271    0.32078    1.000
    N123     N        0.99822    0.48464    0.35805    1.000
    Si124    Si       0.01497    0.49524    0.25254    1.000
    Si125    Si       0.00878    0.34378    0.42073    1.000
    N126     N        0.99389    0.33068    0.38078    1.000
    N127     N        0.04454    0.36980    0.41895    1.000
    N128     N        0.00910    0.35517    0.49713    1.000
    N129     N        0.02857    0.42326    0.46173    1.000
    Si130    Si       0.01985    0.45910    0.48420    1.000
    Si131    Si       0.00345    0.39071    0.47423    1.000
    Si132    Si       0.04645    0.41332    0.42243    1.000
    N133     N        0.03660    0.44497    0.39541    1.000
    Si134    Si       0.99766    0.46358    0.39631    1.000
    N135     N        0.01454    0.50570    0.41509    1.000
    N136     N        0.01997    0.33768    0.56528    1.000
    Si137    Si       0.03311    0.32785    0.52213    1.000
    Si138    Si       0.00308    0.26637    0.50595    1.000
    N139     N        0.04267    0.28876    0.50541    1.000
    N140     N        0.99846    0.36214    0.61909    1.000
    Si141    Si       0.01132    0.32256    0.60610    1.000
    Si142    Si       0.00793    0.37605    0.57909    1.000
    N143     N        0.02273    0.46411    0.59630    1.000
    N144     N        0.01710    0.44383    0.52523    1.000
    Si145    Si       0.04211    0.44140    0.56116    1.000
    N146     N        0.04416    0.39990    0.57187    1.000
    N147     N        0.02517    0.36375    0.68336    1.000
    N148     N        0.04420    0.31252    0.63069    1.000
    Si149    Si       0.04980    0.32921    0.67088    1.000
    N150     N        0.97898    0.31103    0.67983    1.000
    Si151    Si       0.98627    0.34760    0.69901    1.000
    Si152    Si       0.99489    0.39034    0.65072    1.000
    N153     N        0.01805    0.48521    0.66322    1.000
    Si154    Si       0.99712    0.45624    0.63018    1.000
    N155     N        0.02212    0.40291    0.73780    1.000
    N156     N        0.03942    0.47926    0.73991    1.000
    N157     N        0.02156    0.42490    0.65277    1.000
    N158     N        0.03218    0.32053    0.84123    1.000
    N159     N        0.00892    0.37461    0.79927    1.000
    Si160    Si       0.03921    0.26570    0.77676    1.000
    Si161    Si       0.99519    0.34088    0.82245    1.000
    N162     N        0.00388    0.26380    0.80589    1.000
    Si163    Si       0.99335    0.37971    0.75884    1.000
    Si164    Si       0.03236    0.44083    0.75776    1.000
    N165     N        0.03473    0.40743    0.85392    1.000
    Si166    Si       0.00239    0.49426    0.75545    1.000
    N167     N        0.99161    0.45477    0.77220    1.000
    Si168    Si       0.04356    0.39576    0.81285    1.000
    Si169    Si       0.99099    0.40021    0.85708    1.000
    Si170    Si       0.00815    0.35452    0.99183    1.000
    N171     N        0.02715    0.32593    0.96393    1.000
    Si172    Si       0.02909    0.30255    0.88089    1.000
    Si173    Si       0.99770    0.29885    0.94612    1.000
    N174     N        0.99503    0.31364    0.90438    1.000
    N175     N        0.01454    0.25797    0.94638    1.000
    N176     N        0.03014    0.25952    0.87324    1.000
    N177     N        0.03213    0.46009    0.89597    1.000
    Si178    Si       0.00280    0.39610    0.93787    1.000
    N179     N        0.99299    0.43470    0.95469    1.000
    N180     N        0.04513    0.39442    0.93011    1.000
    N181     N        0.01761    0.53132    0.05957    1.000
    Si182    Si       0.03247    0.59760    0.10752    1.000
    Si183    Si       0.01825    0.57355    0.03888    1.000
    N184     N        0.03402    0.60251    0.06374    1.000
    Si185    Si       0.00002    0.53057    0.09787    1.000
    N186     N        0.99399    0.61229    0.11743    1.000
    N187     N        0.01610    0.63692    0.01279    1.000
    N188     N        0.01663    0.71911    0.09852    1.000
    Si189    Si       0.01586    0.70416    0.05695    1.000
    N190     N        0.01664    0.72952    0.01780    1.000
    Si191    Si       0.04458    0.53929    0.20716    1.000
    N192     N        0.02597    0.55747    0.12588    1.000
    Si193    Si       0.00123    0.56673    0.16231    1.000
    N194     N        0.01155    0.52842    0.18175    1.000
    N195     N        0.01230    0.60396    0.18194    1.000
    N196     N        0.04038    0.57360    0.23559    1.000
    Si197    Si       0.03835    0.61299    0.21499    1.000
    N198     N        0.98969    0.53047    0.24349    1.000
    N199     N        0.00016    0.71046    0.23388    1.000
    N200     N        0.03419    0.72924    0.16936    1.000
    Si201    Si       0.03798    0.70168    0.13357    1.000
    N202     N        0.03673    0.64501    0.24234    1.000
    Si203    Si       0.99447    0.63589    0.15499    1.000
    Si204    Si       0.99961    0.73417    0.19647    1.000
    N205     N        0.02999    0.66239    0.15072    1.000
    Si206    Si       0.00209    0.67120    0.24843    1.000
    Si207    Si       0.01012    0.56519    0.26234    1.000
    N208     N        0.01835    0.56371    0.30381    1.000
    N209     N        0.04294    0.55186    0.36730    1.000
    N210     N        0.04075    0.62762    0.30444    1.000
    Si211    Si       0.00218    0.64319    0.31676    1.000
    N212     N        0.01937    0.67677    0.33933    1.000
    Si213    Si       0.02703    0.73203    0.25865    1.000
    Si214    Si       0.00994    0.52395    0.37593    1.000
    N215     N        0.99608    0.61775    0.47436    1.000
    N216     N        0.03803    0.58380    0.42577    1.000
    Si217    Si       0.99566    0.58808    0.44247    1.000
    N218     N        0.99148    0.70277    0.45322    1.000
    Si219    Si       0.00579    0.69449    0.37594    1.000
    N220     N        0.05039    0.65620    0.46603    1.000
    Si221    Si       0.03249    0.69176    0.44760    1.000
    N222     N        0.03865    0.70354    0.40644    1.000
    Si223    Si       0.00110    0.57913    0.57337    1.000
    Si224    Si       0.04135    0.56504    0.53012    1.000
    N225     N        0.99870    0.56446    0.53229    1.000
    N226     N        0.99424    0.55248    0.60628    1.000
    N227     N        0.04668    0.57819    0.57213    1.000
    Si228    Si       0.03144    0.63002    0.49561    1.000
    Si229    Si       0.00814    0.65226    0.56406    1.000
    N230     N        0.02131    0.73638    0.59289    1.000
    N231     N        0.01094    0.73362    0.51707    1.000
    N232     N        0.03520    0.66679    0.60015    1.000
    N233     N        0.03928    0.64639    0.53546    1.000
    Si234    Si       0.00390    0.69491    0.61448    1.000
    Si235    Si       0.99368    0.73142    0.55805    1.000
    Si236    Si       0.01248    0.51956    0.68927    1.000
    Si237    Si       0.01563    0.56987    0.64031    1.000
    N238     N        0.01856    0.61132    0.65367    1.000
    N239     N        0.98727    0.55018    0.66741    1.000
    N240     N        0.04747    0.72498    0.72518    1.000
    Si241    Si       0.00909    0.74422    0.71771    1.000
    N242     N        0.02789    0.66327    0.68760    1.000
    N243     N        0.00053    0.71822    0.65213    1.000
    Si244    Si       0.04618    0.68136    0.72228    1.000
    Si245    Si       0.01836    0.56472    0.85470    1.000
    N246     N        0.00835    0.51931    0.79145    1.000
    N247     N        0.99473    0.60581    0.77358    1.000
    N248     N        0.01007    0.63318    0.82671    1.000
    Si249    Si       0.03519    0.63387    0.86105    1.000
    Si250    Si       0.02791    0.63257    0.78552    1.000
    N251     N        0.02384    0.66274    0.75507    1.000
    Si252    Si       0.02842    0.74886    0.84543    1.000
    N253     N        0.99057    0.72644    0.84022    1.000
    N254     N        0.01898    0.52799    0.87702    1.000
    N255     N        0.02333    0.59831    0.88305    1.000
    Si256    Si       0.01067    0.55257    0.98151    1.000
    N257     N        0.00595    0.55996    0.94019    1.000
    Si258    Si       0.02246    0.59917    0.92528    1.000
    N259     N        0.00516    0.51046    0.99142    1.000
    Si260    Si       0.99019    0.53152    0.91134    1.000
    N261     N        0.03683    0.73673    0.88710    1.000
    N262     N        0.03108    0.66926    0.88767    1.000
    N263     N        0.04133    0.68238    0.96934    1.000
    Si264    Si       0.00883    0.71227    0.97588    1.000
    Si265    Si       0.99436    0.66773    0.90892    1.000
    N266     N        0.99830    0.63321    0.93878    1.000
    N267     N        0.02168    0.74978    0.95945    1.000
    Si268    Si       0.02762    0.64111    0.97095    1.000
    Si269    Si       0.00690    0.74315    0.91812    1.000
    N270     N        0.98959    0.70512    0.93075    1.000
    Si271    Si       0.02761    0.83304    0.08777    1.000
    N272     N        0.03492    0.78863    0.08651    1.000
    Si273    Si       0.01652    0.87361    0.02594    1.000
    N274     N        0.04202    0.84571    0.04837    1.000
    Si275    Si       0.00186    0.76221    0.09370    1.000
    Si276    Si       0.01798    0.99313    0.05752    1.000
    N277     N        0.01552    0.91056    0.04571    1.000
    N278     N        0.99632    0.99962    0.02105    1.000
    N279     N        0.98911    0.96537    0.08070    1.000
    Si280    Si       0.01529    0.80993    0.19623    1.000
    N281     N        0.01281    0.84655    0.22478    1.000
    N282     N        0.99145    0.77489    0.20555    1.000
    N283     N        0.98915    0.83255    0.16759    1.000
    Si284    Si       0.04860    0.86055    0.24700    1.000
    Si285    Si       0.04516    0.91702    0.19805    1.000
    Si286    Si       0.04070    0.98612    0.18559    1.000
    N287     N        0.00506    0.90297    0.18953    1.000
    N288     N        0.01924    0.95942    0.15701    1.000
    Si289    Si       0.02486    0.83708    0.32285    1.000
    N290     N        0.02686    0.85918    0.28458    1.000
    N291     N        0.02229    0.87682    0.34219    1.000
    N292     N        0.02448    0.76356    0.28769    1.000
    N293     N        0.02332    0.93656    0.28614    1.000
    Si294    Si       0.03369    0.89845    0.30641    1.000
    Si295    Si       0.00187    0.97500    0.29141    1.000
    N296     N        0.03448    0.00459    0.29606    1.000
    N297     N        0.01655    0.84516    0.39990    1.000
    N298     N        0.03339    0.82540    0.45692    1.000
    N299     N        0.03494    0.77413    0.40233    1.000
    Si300    Si       0.04543    0.81570    0.41347    1.000
    Si301    Si       0.99145    0.76569    0.41097    1.000
    Si302    Si       0.99121    0.81579    0.46832    1.000
    N303     N        0.99024    0.77336    0.45657    1.000
    Si304    Si       0.01752    0.88644    0.38402    1.000
    N305     N        0.04271    0.92132    0.39073    1.000
    Si306    Si       0.00626    0.97995    0.46571    1.000
    Si307    Si       0.03898    0.95055    0.42324    1.000
    N308     N        0.02862    0.98876    0.40132    1.000
    N309     N        0.99874    0.94532    0.44156    1.000
    Si310    Si       0.01467    0.85498    0.52620    1.000
    Si311    Si       0.03757    0.86390    0.60198    1.000
    N312     N        0.01316    0.87425    0.56693    1.000
    N313     N        0.00351    0.84539    0.62018    1.000
    Si314    Si       0.01938    0.91549    0.54891    1.000
    N315     N        0.02694    0.89569    0.51137    1.000
    Si316    Si       0.01314    0.97534    0.57676    1.000
    N317     N        0.00145    0.98990    0.50722    1.000
    N318     N        0.04443    0.94529    0.57012    1.000
    Si319    Si       0.00859    0.87046    0.71698    1.000
    N320     N        0.01946    0.83027    0.71414    1.000
    N321     N        0.00667    0.77421    0.68793    1.000
    N322     N        0.04566    0.78480    0.64186    1.000
    Si323    Si       0.00984    0.75999    0.64578    1.000
    Si324    Si       0.04620    0.80650    0.68476    1.000
    N325     N        0.03805    0.88729    0.74404    1.000
    Si326    Si       0.04495    0.99070    0.73743    1.000
    N327     N        0.00267    0.99460    0.72409    1.000
    N328     N        0.00909    0.88982    0.67845    1.000
    N329     N        0.04368    0.96726    0.63959    1.000
    Si330    Si       0.00316    0.98115    0.64542    1.000
    Si331    Si       0.04914    0.88561    0.66485    1.000
    N332     N        0.05325    0.89761    0.62382    1.000
    Si333    Si       0.01803    0.82521    0.83366    1.000
    N334     N        0.01227    0.78185    0.82087    1.000
    Si335    Si       0.03214    0.78938    0.78224    1.000
    N336     N        0.03703    0.82992    0.79387    1.000
    N337     N        0.00591    0.77330    0.75285    1.000
    N338     N        0.99348    0.86122    0.83339    1.000
    Si339    Si       0.02439    0.93791    0.78356    1.000
    N340     N        0.02443    0.96653    0.81617    1.000
    Si341    Si       0.00500    0.90445    0.83332    1.000
    N342     N        0.04364    0.90606    0.80489    1.000
    N343     N        0.03925    0.91001    0.86652    1.000
    Si344    Si       0.04928    0.98314    0.84598    1.000
    N345     N        0.02613    0.81847    0.87495    1.000
    Si346    Si       0.02045    0.78960    0.97478    1.000
    N347     N        0.02324    0.81138    0.93821    1.000
    Si348    Si       0.99480    0.81373    0.90572    1.000
    N349     N        0.02686    0.99244    0.95270    1.000
    Si350    Si       0.02857    0.89349    0.95206    1.000
    N351     N        0.04296    0.88333    0.99209    1.000
    N352     N        0.01948    0.99389    0.88042    1.000
    Si353    Si       0.04037    0.01098    0.91349    1.000
    N354     N        0.08156    0.02840    0.03293    1.000
    Si355    Si       0.06826    0.04142    0.07360    1.000
    N356     N        0.07478    0.08422    0.06417    1.000
    Si357    Si       0.08549    0.07066    0.02163    1.000
    N358     N        0.09211    0.02305    0.10426    1.000
    N359     N        0.04680    0.08497    0.00677    1.000
    Si360    Si       0.10458    0.11419    0.07884    1.000
    N361     N        0.09007    0.14016    0.11261    1.000
    N362     N        0.06299    0.24573    0.00497    1.000
    N363     N        0.09128    0.18557    0.01331    1.000
    Si364    Si       0.10016    0.22685    0.01740    1.000
    N365     N        0.05504    0.05842    0.15714    1.000
    Si366    Si       0.08358    0.02879    0.14663    1.000
    N367     N        0.08142    0.07059    0.22497    1.000
    N368     N        0.04776    0.12926    0.24355    1.000
    Si369    Si       0.04494    0.06232    0.20231    1.000
    N370     N        0.09889    0.24085    0.21479    1.000
    Si371    Si       0.05223    0.24055    0.21228    1.000
    N372     N        0.06725    0.14363    0.17129    1.000
    Si373    Si       0.05070    0.14984    0.13115    1.000
    Si374    Si       0.07716    0.06365    0.33453    1.000
    Si375    Si       0.07055    0.10046    0.26441    1.000
    N376     N        0.05800    0.07199    0.29525    1.000
    N377     N        0.09955    0.02559    0.31785    1.000
    N378     N        0.09821    0.12554    0.28795    1.000
    N379     N        0.05774    0.05552    0.37212    1.000
    Si380    Si       0.09459    0.22262    0.25352    1.000
    Si381    Si       0.08930    0.16763    0.29375    1.000
    Si382    Si       0.09651    0.18754    0.37027    1.000
    N383     N        0.05221    0.21451    0.24992    1.000
    N384     N        0.10306    0.25146    0.28436    1.000
    N385     N        0.10565    0.19284    0.32702    1.000
    Si386    Si       0.05561    0.02198    0.40165    1.000
    N387     N        0.07336    0.11234    0.40795    1.000
    Si388    Si       0.07170    0.05563    0.47397    1.000
    N389     N        0.05078    0.05069    0.43518    1.000
    N390     N        0.06995    0.09203    0.49981    1.000
    N391     N        0.05626    0.16928    0.37582    1.000
    N392     N        0.07872    0.18371    0.44469    1.000
    Si393    Si       0.09854    0.19358    0.48216    1.000
    N394     N        0.09187    0.22595    0.39018    1.000
    Si395    Si       0.06226    0.15276    0.41787    1.000
    Si396    Si       0.06556    0.22155    0.42429    1.000
    N397     N        0.07366    0.25633    0.44831    1.000
    N398     N        0.06776    0.11827    0.55910    1.000
    N399     N        0.06922    0.07421    0.60673    1.000
    Si400    Si       0.10031    0.04328    0.61654    1.000
    Si401    Si       0.10339    0.11747    0.50995    1.000
    Si402    Si       0.10113    0.09589    0.57681    1.000
    N403     N        0.06225    0.02358    0.50120    1.000
    Si404    Si       0.09524    0.24859    0.60898    1.000
    N405     N        0.07634    0.24092    0.57105    1.000
    Si406    Si       0.06921    0.16013    0.54896    1.000
    N407     N        0.08314    0.22550    0.50595    1.000
    Si408    Si       0.10305    0.21927    0.54410    1.000
    N409     N        0.08159    0.15775    0.50639    1.000
    N410     N        0.10500    0.18158    0.56426    1.000
    Si411    Si       0.10107    0.03084    0.72928    1.000
    N412     N        0.07310    0.02629    0.64733    1.000
    Si413    Si       0.07149    0.10029    0.70119    1.000
    N414     N        0.09062    0.07520    0.72975    1.000
    N415     N        0.09546    0.11476    0.66775    1.000
    Si416    Si       0.08201    0.20266    0.67084    1.000
    N417     N        0.06976    0.22965    0.63709    1.000
    N418     N        0.05110    0.17283    0.67798    1.000
    Si419    Si       0.08748    0.14340    0.63698    1.000
    N420     N        0.08321    0.23078    0.70510    1.000
    Si421    Si       0.10218    0.21191    0.73810    1.000
    Si422    Si       0.06940    0.03710    0.79439    1.000
    N423     N        0.07835    0.08035    0.80113    1.000
    Si424    Si       0.06340    0.10246    0.83528    1.000
    N425     N        0.10240    0.02099    0.77153    1.000
    Si426    Si       0.10357    0.09135    0.76834    1.000
    N427     N        0.05547    0.02543    0.83275    1.000
    Si428    Si       0.08079    0.15998    0.78617    1.000
    N429     N        0.06273    0.24391    0.80715    1.000
    N430     N        0.06970    0.18348    0.75109    1.000
    Si431    Si       0.10213    0.22708    0.81321    1.000
    N432     N        0.10489    0.18327    0.81580    1.000
    N433     N        0.08372    0.10221    0.87522    1.000
    Si434    Si       0.07031    0.08320    0.91357    1.000
    N435     N        0.10487    0.08626    0.93695    1.000
    N436     N        0.08447    0.16042    0.93906    1.000
    Si437    Si       0.08050    0.19824    0.91875    1.000
    N438     N        0.06938    0.23968    0.92744    1.000
    N439     N        0.09267    0.29157    0.10923    1.000
    Si440    Si       0.09810    0.27926    0.06690    1.000
    N441     N        0.08931    0.36355    0.03213    1.000
    N442     N        0.05433    0.27595    0.06416    1.000
    Si443    Si       0.07481    0.39803    0.01140    1.000
    Si444    Si       0.08505    0.46449    0.04586    1.000
    N445     N        0.09427    0.47703    0.08517    1.000
    N446     N        0.06327    0.42709    0.04140    1.000
    N447     N        0.06388    0.49457    0.02165    1.000
    Si448    Si       0.06971    0.46115    0.11859    1.000
    N449     N        0.05908    0.27717    0.18537    1.000
    N450     N        0.09129    0.37020    0.23829    1.000
    Si451    Si       0.05958    0.34705    0.16732    1.000
    Si452    Si       0.09984    0.28576    0.19920    1.000
    N453     N        0.10031    0.32865    0.17571    1.000
    Si454    Si       0.10544    0.40255    0.15383    1.000
    N455     N        0.06487    0.38982    0.16645    1.000
    N456     N        0.09821    0.44627    0.14663    1.000
    Si457    Si       0.10581    0.40877    0.22603    1.000
    N458     N        0.05277    0.49589    0.13851    1.000
    Si459    Si       0.08585    0.47906    0.22841    1.000
    N460     N        0.07664    0.43827    0.21598    1.000
    N461     N        0.05032    0.50257    0.23092    1.000
    N462     N        0.08462    0.32467    0.28770    1.000
    Si463    Si       0.09906    0.36507    0.28110    1.000
    N464     N        0.08110    0.39955    0.29627    1.000
    N465     N        0.07103    0.45910    0.33797    1.000
    Si466    Si       0.07228    0.48418    0.30187    1.000
    Si467    Si       0.05931    0.41655    0.32834    1.000
    N468     N        0.07163    0.39154    0.36147    1.000
    N469     N        0.09877    0.47068    0.27038    1.000
    Si470    Si       0.07751    0.26555    0.49030    1.000
    Si471    Si       0.06198    0.35313    0.37882    1.000
    Si472    Si       0.08421    0.35874    0.43966    1.000
    Si473    Si       0.08185    0.29103    0.42546    1.000
    N474     N        0.08840    0.31963    0.45721    1.000
    N475     N        0.10414    0.35318    0.39913    1.000
    N476     N        0.05111    0.30918    0.40122    1.000
    N477     N        0.09580    0.38617    0.47009    1.000
    Si478    Si       0.05588    0.50465    0.43191    1.000
    N479     N        0.08853    0.42054    0.41501    1.000
    N480     N        0.08259    0.49649    0.39834    1.000
    N481     N        0.04969    0.48545    0.47066    1.000
    Si482    Si       0.08081    0.45638    0.38143    1.000
    N483     N        0.07262    0.34402    0.52877    1.000
    Si484    Si       0.07618    0.37229    0.56090    1.000
    N485     N        0.09920    0.35379    0.59419    1.000
    Si486    Si       0.10179    0.32589    0.50015    1.000
    N487     N        0.07922    0.46396    0.56493    1.000
    Si488    Si       0.06461    0.47948    0.60486    1.000
    N489     N        0.10200    0.40199    0.54391    1.000
    Si490    Si       0.09815    0.50652    0.55222    1.000
    Si491    Si       0.08603    0.32210    0.62208    1.000
    Si492    Si       0.07147    0.32315    0.74012    1.000
    N493     N        0.09187    0.34015    0.66268    1.000
    N494     N        0.07750    0.36444    0.72880    1.000
    N495     N        0.05418    0.30303    0.70456    1.000
    Si496    Si       0.04696    0.25925    0.70554    1.000
    Si497    Si       0.05070    0.39184    0.70813    1.000
    N498     N        0.08106    0.46402    0.64186    1.000
    Si499    Si       0.04949    0.45327    0.66879    1.000
    N500     N        0.07008    0.42934    0.69838    1.000
    Si501    Si       0.07191    0.50697    0.73123    1.000
    N502     N        0.07558    0.36903    0.80526    1.000
    Si503    Si       0.06700    0.32504    0.81455    1.000
    N504     N        0.05500    0.30540    0.77654    1.000
    Si505    Si       0.08426    0.45851    0.81379    1.000
    N506     N        0.06010    0.49198    0.83202    1.000
    N507     N        0.05777    0.43197    0.79237    1.000
    N508     N        0.08339    0.28989    0.96138    1.000
    Si509    Si       0.06617    0.32521    0.94691    1.000
    N510     N        0.06391    0.30938    0.90534    1.000
    Si511    Si       0.09333    0.27828    0.91873    1.000
    N512     N        0.09828    0.35490    0.94924    1.000
    Si513    Si       0.05358    0.25606    0.96486    1.000
    Si514    Si       0.05117    0.41956    0.89318    1.000
    N515     N        0.09579    0.41691    0.97876    1.000
    N516     N        0.08931    0.50473    0.89191    1.000
    N517     N        0.09527    0.41240    0.89932    1.000
    N518     N        0.10382    0.48179    0.96048    1.000
    Si519    Si       0.08790    0.39499    0.93911    1.000
    Si520    Si       0.04910    0.49612    0.87453    1.000
    N521     N        0.09557    0.54562    0.10974    1.000
    N522     N        0.08968    0.62817    0.02740    1.000
    N523     N        0.04565    0.56750    0.00448    1.000
    N524     N        0.07339    0.73903    0.05758    1.000
    Si525    Si       0.08091    0.70015    0.07291    1.000
    Si526    Si       0.05598    0.74744    0.01767    1.000
    Si527    Si       0.05050    0.63507    0.04068    1.000
    N528     N        0.07803    0.70131    0.11738    1.000
    N529     N        0.04934    0.67567    0.05580    1.000
    N530     N        0.07111    0.60991    0.12581    1.000
    Si531    Si       0.06361    0.53868    0.13817    1.000
    N532     N        0.07828    0.61686    0.19686    1.000
    N533     N        0.07463    0.55206    0.17923    1.000
    Si534    Si       0.10647    0.58256    0.19063    1.000
    Si535    Si       0.06771    0.64070    0.15827    1.000
    Si536    Si       0.10618    0.65018    0.21147    1.000
    N537     N        0.10492    0.73382    0.17590    1.000
    Si538    Si       0.06747    0.75373    0.18670    1.000
    N539     N        0.05847    0.74209    0.22874    1.000
    N540     N        0.10118    0.66592    0.16945    1.000
    N541     N        0.07834    0.52584    0.30774    1.000
    N542     N        0.08877    0.58522    0.32889    1.000
    Si543    Si       0.07194    0.62524    0.33317    1.000
    N544     N        0.10040    0.61678    0.26589    1.000
    Si545    Si       0.05345    0.55765    0.32562    1.000
    Si546    Si       0.07043    0.65101    0.27285    1.000
    N547     N        0.08676    0.66451    0.31667    1.000
    Si548    Si       0.08657    0.71964    0.25795    1.000
    N549     N        0.05725    0.73369    0.34660    1.000
    Si550    Si       0.05626    0.69431    0.32379    1.000
    N551     N        0.08820    0.75489    0.28826    1.000
    N552     N        0.04846    0.69755    0.28037    1.000
    N553     N        0.10033    0.67600    0.24674    1.000
    Si554    Si       0.06387    0.58348    0.38939    1.000
    Si555    Si       0.06795    0.57793    0.45865    1.000
    N556     N        0.07762    0.53627    0.45877    1.000
    N557     N        0.07266    0.62702    0.37796    1.000
    N558     N        0.10077    0.60622    0.45439    1.000
    N559     N        0.10079    0.56291    0.40085    1.000
    Si560    Si       0.07576    0.51142    0.49268    1.000
    N561     N        0.10251    0.67210    0.43527    1.000
    Si562    Si       0.10385    0.64981    0.39694    1.000
    N563     N        0.09886    0.73329    0.40660    1.000
    Si564    Si       0.05795    0.73881    0.38990    1.000
    Si565    Si       0.09157    0.64577    0.46752    1.000
    N566     N        0.06010    0.71870    0.46851    1.000
    Si567    Si       0.09739    0.71392    0.44648    1.000
    Si568    Si       0.07189    0.55871    0.60307    1.000
    N569     N        0.08155    0.51762    0.59357    1.000
    N570     N        0.06480    0.52727    0.53105    1.000
    N571     N        0.05096    0.59090    0.49689    1.000
    Si572    Si       0.06405    0.73428    0.58318    1.000
    Si573    Si       0.07776    0.66579    0.54118    1.000
    N574     N        0.07065    0.70937    0.54331    1.000
    N575     N        0.08901    0.70825    0.60992    1.000
    N576     N        0.09968    0.64778    0.57636    1.000
    Si577    Si       0.07746    0.66505    0.60919    1.000
    Si578    Si       0.05692    0.73067    0.50830    1.000
    Si579    Si       0.07638    0.56437    0.68281    1.000
    N580     N        0.05371    0.53247    0.70228    1.000
    Si581    Si       0.08399    0.62250    0.73791    1.000
    N582     N        0.05742    0.56101    0.64397    1.000
    N583     N        0.06791    0.60311    0.70283    1.000
    Si584    Si       0.05296    0.63059    0.67410    1.000
    N585     N        0.08337    0.65086    0.64937    1.000
    Si586    Si       0.07888    0.75479    0.73537    1.000
    N587     N        0.08605    0.66285    0.71898    1.000
    Si588    Si       0.08106    0.59495    0.81378    1.000
    N589     N        0.06722    0.61618    0.77799    1.000
    N590     N        0.07707    0.52512    0.77133    1.000
    N591     N        0.07379    0.62739    0.84396    1.000
    N592     N        0.05276    0.56392    0.82513    1.000
    Si593    Si       0.04876    0.52564    0.80534    1.000
    N594     N        0.09043    0.69283    0.85645    1.000
    N595     N        0.07143    0.75586    0.83956    1.000
    Si596    Si       0.10199    0.51391    0.93049    1.000
    N597     N        0.07688    0.53722    0.95884    1.000
    Si598    Si       0.07347    0.57779    0.97344    1.000
    N599     N        0.05243    0.60986    0.95543    1.000
    Si600    Si       0.09101    0.51016    0.99081    1.000
    Si601    Si       0.05978    0.70113    0.88799    1.000
    N602     N        0.08839    0.70735    0.92191    1.000
    N603     N        0.08715    0.73209    0.99103    1.000
    Si604    Si       0.08185    0.69754    0.96198    1.000
    Si605    Si       0.07152    0.82139    0.03073    1.000
    Si606    Si       0.07764    0.77487    0.08420    1.000
    N607     N        0.09929    0.85071    0.01273    1.000
    N608     N        0.09977    0.80077    0.05747    1.000
    N609     N        0.05224    0.78955    0.00732    1.000
    N610     N        0.09028    0.78555    0.12386    1.000
    Si611    Si       0.08446    0.88991    0.00437    1.000
    Si612    Si       0.08870    0.98466    0.03047    1.000
    N613     N        0.09010    0.91118    0.04297    1.000
    N614     N        0.06040    0.92229    0.10200    1.000
    Si615    Si       0.05286    0.92766    0.06016    1.000
    N616     N        0.05340    0.96940    0.05087    1.000
    N617     N        0.05103    0.84751    0.12223    1.000
    N618     N        0.05807    0.79876    0.18233    1.000
    N619     N        0.08319    0.84049    0.23505    1.000
    Si620    Si       0.07318    0.81759    0.14491    1.000
    Si621    Si       0.09551    0.81707    0.20082    1.000
    N622     N        0.10439    0.84144    0.16276    1.000
    Si623    Si       0.07525    0.88532    0.12469    1.000
    N624     N        0.07565    0.98482    0.15499    1.000
    Si625    Si       0.05718    0.94599    0.13945    1.000
    N626     N        0.06896    0.90907    0.16289    1.000
    N627     N        0.05903    0.90123    0.23769    1.000
    N628     N        0.05001    0.95766    0.21502    1.000
    Si629    Si       0.09593    0.82422    0.35394    1.000
    N630     N        0.05903    0.81002    0.33331    1.000
    Si631    Si       0.05758    0.76877    0.31714    1.000
    Si632    Si       0.07196    0.92972    0.35964    1.000
    N633     N        0.07504    0.90993    0.32100    1.000
    N634     N        0.08607    0.96530    0.27355    1.000
    N635     N        0.07496    0.97267    0.34679    1.000
    Si636    Si       0.07374    0.98942    0.30740    1.000
    Si637    Si       0.05418    0.94047    0.25605    1.000
    N638     N        0.09378    0.80460    0.45926    1.000
    N639     N        0.08604    0.82561    0.39575    1.000
    N640     N        0.08885    0.87245    0.48020    1.000
    Si641    Si       0.06922    0.83270    0.48147    1.000
    N642     N        0.04911    0.97201    0.46103    1.000
    N643     N        0.09619    0.00906    0.40579    1.000
    Si644    Si       0.07840    0.98131    0.49410    1.000
    N645     N        0.07741    0.77430    0.57965    1.000
    Si646    Si       0.07829    0.79830    0.54191    1.000
    N647     N        0.07055    0.83777    0.59042    1.000
    N648     N        0.08261    0.76582    0.51099    1.000
    Si649    Si       0.07344    0.80105    0.61258    1.000
    Si650    Si       0.10099    0.85840    0.56721    1.000
    N651     N        0.05041    0.82831    0.52171    1.000
    N652     N        0.08094    0.89398    0.54822    1.000
    Si653    Si       0.06295    0.93767    0.61256    1.000
    Si654    Si       0.06941    0.89951    0.50710    1.000
    N655     N        0.08956    0.93845    0.50379    1.000
    N656     N        0.10013    0.98413    0.54067    1.000
    N657     N        0.10424    0.94160    0.59618    1.000
    Si658    Si       0.09908    0.94079    0.54785    1.000
    N659     N        0.06343    0.84494    0.66873    1.000
    N660     N        0.07894    0.78936    0.70739    1.000
    Si661    Si       0.10463    0.84501    0.66071    1.000
    N662     N        0.07581    0.91005    0.69079    1.000
    N663     N        0.07531    0.00000    0.70938    1.000
    Si664    Si       0.07161    0.98634    0.66754    1.000
    Si665    Si       0.06819    0.91679    0.73291    1.000
    Si666    Si       0.09429    0.78776    0.85705    1.000
    N667     N        0.09133    0.85728    0.77694    1.000
    N668     N        0.06990    0.77570    0.77284    1.000
    Si669    Si       0.09554    0.81398    0.78176    1.000
    Si670    Si       0.05151    0.87030    0.78293    1.000
    Si671    Si       0.07003    0.91950    0.83630    1.000
    N672     N        0.08473    0.95798    0.84804    1.000
    N673     N        0.10667    0.89691    0.82908    1.000
    N674     N        0.04816    0.95122    0.75041    1.000
    N675     N        0.09014    0.81162    0.89187    1.000
    Si676    Si       0.05320    0.82811    0.90703    1.000
    N677     N        0.04845    0.86779    0.92106    1.000
    Si678    Si       0.06137    0.90652    0.90253    1.000
    N679     N        0.08901    0.96978    0.98893    1.000
    Si680    Si       0.06198    0.96785    0.95397    1.000
    N681     N        0.07978    0.99184    0.92226    1.000
    N682     N        0.05065    0.92828    0.93861    1.000
    N683     N        0.10235    0.89628    0.90148    1.000
    N684     N        0.14324    0.10384    0.09514    1.000
    Si685    Si       0.14632    0.10835    0.00943    1.000
    N686     N        0.15612    0.03192    0.08343    1.000
    N687     N        0.12018    0.12767    0.04053    1.000
    Si688    Si       0.15957    0.22828    0.06071    1.000
    Si689    Si       0.12557    0.16293    0.01803    1.000
    N690     N        0.15705    0.18665    0.04193    1.000
    N691     N        0.11681    0.23957    0.05611    1.000
    N692     N        0.15767    0.06219    0.22598    1.000
    Si693    Si       0.11648    0.04691    0.21717    1.000
    N694     N        0.11327    0.02859    0.17848    1.000
    N695     N        0.15508    0.13148    0.22993    1.000
    Si696    Si       0.12242    0.22860    0.17856    1.000
    N697     N        0.16345    0.22386    0.19254    1.000
    N698     N        0.14634    0.13367    0.15958    1.000
    Si699    Si       0.10783    0.15453    0.15060    1.000
    N700     N        0.10855    0.19638    0.15462    1.000
    Si701    Si       0.13037    0.03380    0.28908    1.000
    N702     N        0.14518    0.07558    0.29040    1.000
    Si703    Si       0.13240    0.10921    0.31307    1.000
    N704     N        0.12060    0.01665    0.24967    1.000
    N705     N        0.16730    0.04455    0.36353    1.000
    Si706    Si       0.16403    0.09548    0.25510    1.000
    N707     N        0.10531    0.09473    0.34589    1.000
    N708     N        0.11396    0.18553    0.26194    1.000
    Si709    Si       0.15400    0.16580    0.25868    1.000
    Si710    Si       0.12698    0.22922    0.31262    1.000
    N711     N        0.16007    0.14317    0.29625    1.000
    N712     N        0.13892    0.25645    0.34562    1.000
    N713     N        0.11178    0.05431    0.45805    1.000
    N714     N        0.12909    0.12116    0.47596    1.000
    N715     N        0.14232    0.09576    0.40618    1.000
    Si716    Si       0.14018    0.08805    0.45030    1.000
    Si717    Si       0.12197    0.01487    0.43987    1.000
    N718     N        0.16215    0.01406    0.42872    1.000
    Si719    Si       0.10993    0.11417    0.38305    1.000
    N720     N        0.12289    0.15558    0.38210    1.000
    N721     N        0.15671    0.21692    0.40073    1.000
    Si722    Si       0.12984    0.24756    0.38803    1.000
    Si723    Si       0.16014    0.15404    0.47403    1.000
    Si724    Si       0.16091    0.17139    0.39423    1.000
    N725     N        0.14089    0.19143    0.48829    1.000
    N726     N        0.13270    0.11740    0.54605    1.000
    N727     N        0.11623    0.12451    0.60924    1.000
    N728     N        0.11333    0.05203    0.57227    1.000
    Si729    Si       0.12421    0.01015    0.56449    1.000
    N730     N        0.14373    0.23347    0.54134    1.000
    N731     N        0.13853    0.23467    0.60916    1.000
    Si732    Si       0.13274    0.15257    0.58008    1.000
    N733     N        0.16420    0.17987    0.59978    1.000
    Si734    Si       0.13860    0.10363    0.64685    1.000
    N735     N        0.13235    0.06048    0.64026    1.000
    Si736    Si       0.15264    0.04891    0.67715    1.000
    N737     N        0.14251    0.03107    0.71555    1.000
    N738     N        0.15868    0.09041    0.68497    1.000
    N739     N        0.10926    0.18166    0.64609    1.000
    N740     N        0.16074    0.23707    0.66527    1.000
    N741     N        0.13621    0.18582    0.72674    1.000
    Si742    Si       0.14779    0.20185    0.64021    1.000
    N743     N        0.13715    0.04428    0.82834    1.000
    N744     N        0.13966    0.11769    0.83585    1.000
    N745     N        0.14685    0.08147    0.77195    1.000
    Si746    Si       0.15433    0.08309    0.81588    1.000
    Si747    Si       0.13774    0.01403    0.79573    1.000
    Si748    Si       0.15330    0.03315    0.86664    1.000
    N749     N        0.11099    0.13424    0.76785    1.000
    Si750    Si       0.14043    0.16099    0.82667    1.000
    N751     N        0.12007    0.23408    0.77426    1.000
    N752     N        0.12278    0.25148    0.84311    1.000
    Si753    Si       0.14760    0.15372    0.75526    1.000
    N754     N        0.15934    0.18378    0.85742    1.000
    Si755    Si       0.16120    0.24816    0.77155    1.000
    N756     N        0.16651    0.16502    0.79227    1.000
    Si757    Si       0.12644    0.10341    0.87644    1.000
    N758     N        0.15031    0.07133    0.88754    1.000
    Si759    Si       0.13624    0.05959    0.96188    1.000
    N760     N        0.14424    0.02012    0.94652    1.000
    Si761    Si       0.11330    0.12963    0.94099    1.000
    N762     N        0.14452    0.13038    0.90947    1.000
    N763     N        0.12477    0.07191    0.00118    1.000
    N764     N        0.12031    0.20393    0.90170    1.000
    N765     N        0.13027    0.24168    0.98931    1.000
    Si766    Si       0.14333    0.23852    0.88077    1.000
    Si767    Si       0.15119    0.17222    0.89939    1.000
    N768     N        0.13070    0.13928    0.97984    1.000
    Si769    Si       0.12366    0.34056    0.03583    1.000
    Si770    Si       0.15768    0.35987    0.10984    1.000
    N771     N        0.15122    0.35584    0.06545    1.000
    N772     N        0.15023    0.35854    0.00205    1.000
    N773     N        0.11392    0.29878    0.02841    1.000
    N774     N        0.12467    0.46546    0.02258    1.000
    Si775    Si       0.14708    0.50155    0.03225    1.000
    N776     N        0.15471    0.31777    0.12369    1.000
    N777     N        0.12344    0.38466    0.12088    1.000
    N778     N        0.12993    0.27069    0.16739    1.000
    Si779    Si       0.11767    0.30498    0.14164    1.000
    Si780    Si       0.12161    0.34913    0.21071    1.000
    N781     N        0.11943    0.30551    0.23316    1.000
    N782     N        0.16328    0.35228    0.22865    1.000
    N783     N        0.14404    0.42270    0.24231    1.000
    N784     N        0.11687    0.48880    0.20113    1.000
    N785     N        0.13895    0.49964    0.13664    1.000
    Si786    Si       0.12977    0.46967    0.16541    1.000
    N787     N        0.12560    0.39127    0.19022    1.000
    N788     N        0.16413    0.44225    0.17431    1.000
    Si789    Si       0.16430    0.40748    0.20340    1.000
    N790     N        0.14590    0.32429    0.34687    1.000
    N791     N        0.15326    0.29383    0.28730    1.000
    N792     N        0.14174    0.36707    0.29192    1.000
    Si793    Si       0.16120    0.36138    0.33073    1.000
    Si794    Si       0.16221    0.28951    0.32823    1.000
    Si795    Si       0.11140    0.29224    0.27493    1.000
    N796     N        0.15947    0.43836    0.30013    1.000
    N797     N        0.14176    0.39525    0.35231    1.000
    Si798    Si       0.14109    0.46013    0.26820    1.000
    Si799    Si       0.15405    0.43632    0.34413    1.000
    Si800    Si       0.16389    0.40119    0.27655    1.000
    N801     N        0.16116    0.49247    0.24874    1.000
    N802     N        0.11828    0.28701    0.40068    1.000
    Si803    Si       0.13781    0.32446    0.38960    1.000
    N804     N        0.13848    0.42387    0.49083    1.000
    N805     N        0.14749    0.40000    0.41934    1.000
    N806     N        0.12944    0.46264    0.44493    1.000
    N807     N        0.12855    0.45184    0.37712    1.000
    Si808    Si       0.11273    0.39569    0.38555    1.000
    Si809    Si       0.13844    0.46858    0.48793    1.000
    Si810    Si       0.11964    0.41937    0.44918    1.000
    Si811    Si       0.15107    0.46963    0.40926    1.000
    Si812    Si       0.15270    0.27423    0.52528    1.000
    N813     N        0.13877    0.35074    0.50928    1.000
    N814     N        0.11413    0.28469    0.50764    1.000
    Si815    Si       0.13546    0.37741    0.60387    1.000
    N816     N        0.16417    0.37450    0.57274    1.000
    Si817    Si       0.12008    0.38948    0.50666    1.000
    N818     N        0.14700    0.46699    0.55895    1.000
    N819     N        0.12364    0.41983    0.60505    1.000
    Si820    Si       0.11571    0.43831    0.56301    1.000
    N821     N        0.11163    0.49312    0.50919    1.000
    Si822    Si       0.15742    0.50234    0.58564    1.000
    N823     N        0.10915    0.28659    0.62513    1.000
    Si824    Si       0.14745    0.27146    0.64130    1.000
    N825     N        0.15319    0.30323    0.68078    1.000
    N826     N        0.14745    0.36307    0.71097    1.000
    N827     N        0.15219    0.37078    0.64436    1.000
    Si828    Si       0.13249    0.34448    0.67479    1.000
    Si829    Si       0.15061    0.29956    0.72764    1.000
    Si830    Si       0.11884    0.37760    0.73957    1.000
    N831     N        0.11248    0.30939    0.73905    1.000
    Si832    Si       0.12417    0.45215    0.63375    1.000
    Si833    Si       0.11136    0.44532    0.70243    1.000
    Si834    Si       0.15029    0.50242    0.72500    1.000
    N835     N        0.14886    0.48654    0.62673    1.000
    N836     N        0.13965    0.43516    0.67007    1.000
    N837     N        0.10918    0.48901    0.71650    1.000
    N838     N        0.12214    0.42099    0.73740    1.000
    Si839    Si       0.13756    0.28917    0.83048    1.000
    Si840    Si       0.11719    0.36093    0.81317    1.000
    N841     N        0.13768    0.37279    0.77845    1.000
    N842     N        0.13948    0.37817    0.84682    1.000
    N843     N        0.16013    0.28555    0.79379    1.000
    N844     N        0.10802    0.31910    0.82621    1.000
    Si845    Si       0.14409    0.44352    0.76778    1.000
    Si846    Si       0.11829    0.49212    0.85927    1.000
    N847     N        0.11472    0.47021    0.78754    1.000
    N848     N        0.11112    0.45045    0.84758    1.000
    N849     N        0.16302    0.36645    0.93148    1.000
    N850     N        0.14964    0.30475    0.96719    1.000
    Si851    Si       0.14010    0.34732    0.96239    1.000
    N852     N        0.13492    0.26816    0.91397    1.000
    Si853    Si       0.11881    0.28343    0.98898    1.000
    Si854    Si       0.12740    0.41467    0.87030    1.000
    Si855    Si       0.12211    0.45040    0.98215    1.000
    N856     N        0.15599    0.49397    0.88231    1.000
    N857     N        0.16062    0.43858    0.96516    1.000
    N858     N        0.13089    0.60930    0.08549    1.000
    N859     N        0.15209    0.51910    0.07039    1.000
    N860     N        0.12818    0.53050    0.00629    1.000
    Si861    Si       0.12044    0.51052    0.09962    1.000
    Si862    Si       0.10891    0.58776    0.11530    1.000
    N863     N        0.15118    0.63663    0.01658    1.000
    Si864    Si       0.12542    0.63835    0.05234    1.000
    Si865    Si       0.15224    0.69169    0.08504    1.000
    N866     N        0.11845    0.68068    0.06250    1.000
    N867     N        0.12890    0.58870    0.15420    1.000
    Si868    Si       0.14499    0.52027    0.21763    1.000
    N869     N        0.12525    0.55935    0.22251    1.000
    N870     N        0.13948    0.62318    0.21281    1.000
    Si871    Si       0.10952    0.70196    0.14828    1.000
    Si872    Si       0.13510    0.74323    0.20500    1.000
    N873     N        0.14663    0.70152    0.12634    1.000
    N874     N        0.14266    0.56115    0.28763    1.000
    N875     N        0.13220    0.52634    0.34960    1.000
    Si876    Si       0.11358    0.54967    0.31678    1.000
    Si877    Si       0.13288    0.59364    0.25068    1.000
    N878     N        0.15224    0.62953    0.33203    1.000
    N879     N        0.14675    0.69652    0.30351    1.000
    Si880    Si       0.12903    0.66658    0.32836    1.000
    Si881    Si       0.14442    0.69359    0.26005    1.000
    N882     N        0.15348    0.74059    0.36367    1.000
    N883     N        0.12900    0.73316    0.24690    1.000
    Si884    Si       0.11406    0.52320    0.38943    1.000
    N885     N        0.13807    0.62117    0.40147    1.000
    Si886    Si       0.12867    0.58707    0.42502    1.000
    N887     N        0.15578    0.51187    0.40186    1.000
    N888     N        0.12210    0.67757    0.36870    1.000
    Si889    Si       0.13421    0.71233    0.39094    1.000
    N890     N        0.16502    0.70320    0.41977    1.000
    N891     N        0.12931    0.73510    0.46831    1.000
    N892     N        0.14315    0.60027    0.54436    1.000
    N893     N        0.13701    0.53142    0.55930    1.000
    Si894    Si       0.12869    0.61599    0.58285    1.000
    Si895    Si       0.16385    0.56294    0.54494    1.000
    N896     N        0.16106    0.61062    0.61591    1.000
    N897     N        0.10611    0.58535    0.60735    1.000
    Si898    Si       0.14617    0.63513    0.51776    1.000
    N899     N        0.15594    0.67767    0.61533    1.000
    N900     N        0.10453    0.65144    0.50832    1.000
    Si901    Si       0.13630    0.57816    0.63760    1.000
    Si902    Si       0.14197    0.59907    0.70244    1.000
    N903     N        0.11900    0.57039    0.67696    1.000
    N904     N        0.12507    0.61055    0.74185    1.000
    N905     N        0.15091    0.74558    0.62732    1.000
    N906     N        0.14070    0.63678    0.67725    1.000
    Si907    Si       0.12860    0.70896    0.63104    1.000
    N908     N        0.12856    0.70576    0.67553    1.000
    Si909    Si       0.11000    0.66728    0.68183    1.000
    Si910    Si       0.14709    0.73536    0.70092    1.000
    N911     N        0.11998    0.73793    0.73582    1.000
    Si912    Si       0.14616    0.55784    0.83091    1.000
    Si913    Si       0.13689    0.62025    0.78433    1.000
    N914     N        0.12243    0.58807    0.80790    1.000
    N915     N        0.14778    0.52856    0.76277    1.000
    N916     N        0.12266    0.52160    0.82905    1.000
    Si917    Si       0.11550    0.51360    0.78789    1.000
    N918     N        0.13124    0.73116    0.80537    1.000
    N919     N        0.12758    0.65658    0.80643    1.000
    Si920    Si       0.15441    0.69110    0.80639    1.000
    Si921    Si       0.13952    0.75545    0.77009    1.000
    N922     N        0.12504    0.75547    0.86945    1.000
    N923     N        0.16768    0.69001    0.84803    1.000
    Si924    Si       0.10406    0.72902    0.83791    1.000
    Si925    Si       0.10882    0.65365    0.84701    1.000
    N926     N        0.15157    0.56615    0.87340    1.000
    N927     N        0.11461    0.58970    0.97797    1.000
    N928     N        0.13819    0.53602    0.93530    1.000
    Si929    Si       0.14102    0.55692    0.97365    1.000
    Si930    Si       0.16292    0.53519    0.89945    1.000
    Si931    Si       0.16312    0.60780    0.88567    1.000
    Si932    Si       0.11480    0.63219    0.99211    1.000
    N933     N        0.13378    0.63680    0.87631    1.000
    Si934    Si       0.15034    0.69382    0.95899    1.000
    N935     N        0.15469    0.72575    0.98960    1.000
    N936     N        0.15460    0.71008    0.91744    1.000
    Si937    Si       0.12512    0.75622    0.98060    1.000
    Si938    Si       0.11930    0.73521    0.90974    1.000
    N939     N        0.11436    0.67069    0.97240    1.000
    Si940    Si       0.14082    0.80255    0.04228    1.000
    N941     N        0.16054    0.82597    0.12242    1.000
    N942     N        0.11781    0.88494    0.11035    1.000
    N943     N        0.12379    0.98021    0.05535    1.000
    Si944    Si       0.11941    0.90952    0.07264    1.000
    Si945    Si       0.16104    0.96458    0.03918    1.000
    Si946    Si       0.12700    0.00019    0.09404    1.000
    N947     N        0.15936    0.92706    0.06552    1.000
    Si948    Si       0.16283    0.80534    0.21296    1.000
    Si949    Si       0.13841    0.85872    0.13956    1.000
    N950     N        0.15027    0.84547    0.22025    1.000
    N951     N        0.12426    0.78671    0.20838    1.000
    Si952    Si       0.11760    0.98490    0.16875    1.000
    N953     N        0.14313    0.98444    0.13273    1.000
    N954     N        0.13187    0.96536    0.20612    1.000
    N955     N        0.13499    0.80416    0.35303    1.000
    N956     N        0.12585    0.81183    0.27948    1.000
    Si957    Si       0.14494    0.82633    0.31708    1.000
    Si958    Si       0.12619    0.76816    0.27396    1.000
    Si959    Si       0.12161    0.84780    0.25262    1.000
    N960     N        0.11082    0.85587    0.32818    1.000
    N961     N        0.16178    0.76223    0.29921    1.000
    N962     N        0.13242    0.88616    0.27109    1.000
    Si963    Si       0.11497    0.89464    0.31096    1.000
    N964     N        0.15590    0.95339    0.26717    1.000
    N965     N        0.14252    0.91931    0.33236    1.000
    Si966    Si       0.12090    0.97151    0.24759    1.000
    Si967    Si       0.14854    0.93197    0.37203    1.000
    N968     N        0.15012    0.97706    0.37172    1.000
    Si969    Si       0.11633    0.81887    0.42632    1.000
    N970     N        0.14856    0.78869    0.41875    1.000
    N971     N        0.14241    0.85248    0.43584    1.000
    Si972    Si       0.11354    0.77306    0.48294    1.000
    Si973    Si       0.16143    0.78031    0.37902    1.000
    Si974    Si       0.13238    0.87884    0.46969    1.000
    N975     N        0.15151    0.79567    0.49062    1.000
    Si976    Si       0.10567    0.98064    0.37547    1.000
    N977     N        0.14451    0.92105    0.46107    1.000
    N978     N        0.10664    0.93558    0.38645    1.000
    N979     N        0.11346    0.98445    0.46896    1.000
    Si980    Si       0.13505    0.95022    0.49124    1.000
    Si981    Si       0.15093    0.82650    0.52162    1.000
    N982     N        0.15486    0.86650    0.50479    1.000
    N983     N        0.11331    0.82348    0.54195    1.000
    N984     N        0.13872    0.88010    0.57469    1.000
    N985     N        0.14737    0.93539    0.53192    1.000
    Si986    Si       0.16017    0.89252    0.54096    1.000
    N987     N        0.13184    0.00326    0.60833    1.000
    Si988    Si       0.14995    0.89471    0.61274    1.000
    N989     N        0.16376    0.00509    0.55166    1.000
    N990     N        0.12806    0.83923    0.69695    1.000
    Si991    Si       0.14327    0.78402    0.64525    1.000
    N992     N        0.14385    0.77462    0.68648    1.000
    Si993    Si       0.12052    0.79984    0.71327    1.000
    Si994    Si       0.16433    0.86217    0.70055    1.000
    N995     N        0.10923    0.80808    0.63784    1.000
    N996     N        0.11636    0.88153    0.64278    1.000
    Si997    Si       0.13062    0.96303    0.62320    1.000
    Si998    Si       0.11420    0.91723    0.67206    1.000
    N999     N        0.10583    0.95924    0.65949    1.000
    Si1000   Si       0.15288    0.91607    0.73749    1.000
    N1001    N        0.15028    0.90869    0.69353    1.000
    N1002    N        0.15939    0.93207    0.63212    1.000
    N1003    N        0.12705    0.79788    0.75705    1.000
    Si1004   Si       0.14556    0.83368    0.83620    1.000
    N1005    N        0.15224    0.85342    0.79904    1.000
    N1006    N        0.10745    0.81245    0.82561    1.000
    Si1007   Si       0.16410    0.77468    0.86877    1.000
    N1008    N        0.15781    0.86458    0.86477    1.000
    Si1009   Si       0.12197    0.88580    0.78896    1.000
    Si1010   Si       0.12611    0.96771    0.84912    1.000
    N1011    N        0.14716    0.97505    0.81251    1.000
    N1012    N        0.15972    0.91223    0.78715    1.000
    Si1013   Si       0.13049    0.89669    0.86469    1.000
    N1014    N        0.10911    0.91498    0.74996    1.000
    N1015    N        0.14760    0.93638    0.87154    1.000
    N1016    N        0.12257    0.83994    0.94401    1.000
    Si1017   Si       0.12397    0.80535    0.91987    1.000
    Si1018   Si       0.13154    0.83714    0.98585    1.000
    N1019    N        0.11930    0.76717    0.93920    1.000
    N1020    N        0.16401    0.80037    0.90351    1.000
    N1021    N        0.13429    0.79511    0.99880    1.000
    Si1022   Si       0.12432    0.88478    0.93614    1.000
    N1023    N        0.13871    0.95606    0.93545    1.000
    N1024    N        0.16757    0.89273    0.92383    1.000
    Si1025   Si       0.12188    0.99380    0.91957    1.000
    N1026    N        0.11119    0.90455    0.97374    1.000
    Si1027   Si       0.12317    0.94480    0.97602    1.000
    N1028    N        0.12814    0.00135    0.87706    1.000
    N1029    N        0.15831    0.96447    0.99517    1.000
    N1030    N        0.20379    0.05893    0.05784    1.000
    N1031    N        0.18691    0.12643    0.01277    1.000
    Si1032   Si       0.17063    0.07139    0.08487    1.000
    Si1033   Si       0.19773    0.01868    0.07424    1.000
    Si1034   Si       0.19138    0.16917    0.02235    1.000
    N1035    N        0.18684    0.24549    0.03181    1.000
    N1036    N        0.20243    0.14813    0.11572    1.000
    N1037    N        0.17185    0.25099    0.09450    1.000
    N1038    N        0.22720    0.17647    0.04620    1.000
    Si1039   Si       0.16927    0.12033    0.12460    1.000
    N1040    N        0.19368    0.08201    0.12112    1.000
    N1041    N        0.19266    0.03018    0.16902    1.000
    Si1042   Si       0.21432    0.06844    0.15846    1.000
    Si1043   Si       0.18958    0.03580    0.21147    1.000
    N1044    N        0.20361    0.10123    0.18639    1.000
    Si1045   Si       0.22635    0.09615    0.22435    1.000
    Si1046   Si       0.17763    0.13493    0.19156    1.000
    N1047    N        0.18743    0.19268    0.24427    1.000
    N1048    N        0.20611    0.16728    0.18223    1.000
    Si1049   Si       0.20005    0.20416    0.20359    1.000
    N1050    N        0.20747    0.09943    0.26273    1.000
    Si1051   Si       0.17738    0.05813    0.32125    1.000
    N1052    N        0.22028    0.05646    0.32224    1.000
    N1053    N        0.17181    0.10363    0.34003    1.000
    N1054    N        0.16920    0.01729    0.29836    1.000
    Si1055   Si       0.19011    0.14044    0.32848    1.000
    N1056    N        0.20680    0.23470    0.36184    1.000
    Si1057   Si       0.20114    0.22071    0.27482    1.000
    Si1058   Si       0.19049    0.20601    0.33535    1.000
    N1059    N        0.18399    0.17031    0.35674    1.000
    N1060    N        0.22319    0.19883    0.30509    1.000
    N1061    N        0.16704    0.22192    0.30267    1.000
    N1062    N        0.18222    0.08837    0.45762    1.000
    Si1063   Si       0.20312    0.12067    0.43333    1.000
    Si1064   Si       0.17453    0.08472    0.38024    1.000
    N1065    N        0.21206    0.10090    0.39505    1.000
    Si1066   Si       0.20571    0.06777    0.48771    1.000
    N1067    N        0.21725    0.02782    0.47513    1.000
    Si1068   Si       0.17386    0.00831    0.38648    1.000
    N1069    N        0.17831    0.25722    0.49507    1.000
    Si1070   Si       0.19722    0.23081    0.40348    1.000
    N1071    N        0.21204    0.19689    0.48528    1.000
    N1072    N        0.17554    0.15565    0.43228    1.000
    N1073    N        0.18478    0.05359    0.59241    1.000
    Si1074   Si       0.19318    0.03769    0.55391    1.000
    N1075    N        0.18081    0.06564    0.52315    1.000
    Si1076   Si       0.20624    0.09060    0.60479    1.000
    N1077    N        0.20810    0.10922    0.56364    1.000
    Si1078   Si       0.17340    0.10673    0.53656    1.000
    N1079    N        0.18427    0.13976    0.50900    1.000
    N1080    N        0.19462    0.19798    0.54473    1.000
    N1081    N        0.19789    0.25093    0.57736    1.000
    Si1082   Si       0.21495    0.16800    0.51907    1.000
    Si1083   Si       0.17364    0.21527    0.50757    1.000
    Si1084   Si       0.16615    0.21691    0.57539    1.000
    Si1085   Si       0.17075    0.02266    0.61774    1.000
    N1086    N        0.17649    0.11468    0.62690    1.000
    Si1087   Si       0.19062    0.10575    0.70632    1.000
    N1088    N        0.18244    0.02315    0.65961    1.000
    N1089    N        0.19990    0.07107    0.73058    1.000
    Si1090   Si       0.18777    0.15610    0.62684    1.000
    N1091    N        0.17987    0.14107    0.72755    1.000
    Si1092   Si       0.17458    0.17718    0.70408    1.000
    N1093    N        0.20608    0.20443    0.71295    1.000
    Si1094   Si       0.18854    0.24278    0.69752    1.000
    N1095    N        0.17089    0.17209    0.66309    1.000
    N1096    N        0.16537    0.25930    0.73049    1.000
    N1097    N        0.19639    0.07621    0.82442    1.000
    Si1098   Si       0.20365    0.03270    0.81763    1.000
    N1099    N        0.17782    0.02388    0.77991    1.000
    N1100    N        0.19285    0.01660    0.85800    1.000
    Si1101   Si       0.16661    0.05097    0.74797    1.000
    N1102    N        0.19688    0.22700    0.78708    1.000
    Si1103   Si       0.20388    0.18597    0.80180    1.000
    Si1104   Si       0.19893    0.20260    0.87234    1.000
    N1105    N        0.22256    0.18847    0.84080    1.000
    N1106    N        0.21030    0.10937    0.88920    1.000
    N1107    N        0.17443    0.08263    0.95405    1.000
    Si1108   Si       0.20649    0.11253    0.97491    1.000
    Si1109   Si       0.20602    0.04977    0.95462    1.000
    Si1110   Si       0.17604    0.09668    0.91285    1.000
    N1111    N        0.20275    0.01226    0.97630    1.000
    N1112    N        0.22568    0.03916    0.91693    1.000
    N1113    N        0.18937    0.19114    0.98488    1.000
    Si1114   Si       0.17197    0.23235    0.99151    1.000
    N1115    N        0.19461    0.25765    0.96552    1.000
    N1116    N        0.22353    0.14086    0.94868    1.000
    N1117    N        0.18737    0.18971    0.91250    1.000
    N1118    N        0.18694    0.24524    0.87347    1.000
    Si1119   Si       0.21167    0.18292    0.94827    1.000
    N1120    N        0.21269    0.35478    0.04165    1.000
    Si1121   Si       0.18452    0.28738    0.11334    1.000
    Si1122   Si       0.17563    0.37464    0.03368    1.000
    N1123    N        0.21813    0.30749    0.09443    1.000
    Si1124   Si       0.22096    0.34960    0.08663    1.000
    N1125    N        0.19894    0.37217    0.11797    1.000
    N1126    N        0.18169    0.41598    0.03519    1.000
    N1127    N        0.18604    0.49084    0.01980    1.000
    Si1128   Si       0.20354    0.45145    0.02627    1.000
    N1129    N        0.18047    0.28324    0.22323    1.000
    N1130    N        0.20002    0.27324    0.15271    1.000
    Si1131   Si       0.20947    0.36457    0.23176    1.000
    Si1132   Si       0.17044    0.26651    0.18440    1.000
    Si1133   Si       0.22237    0.28911    0.23780    1.000
    N1134    N        0.21681    0.47047    0.20755    1.000
    N1135    N        0.20659    0.48522    0.13440    1.000
    N1136    N        0.19988    0.38668    0.19131    1.000
    Si1137   Si       0.21952    0.38637    0.15343    1.000
    Si1138   Si       0.20554    0.45446    0.16697    1.000
    N1139    N        0.20695    0.29517    0.33219    1.000
    N1140    N        0.20458    0.36202    0.32924    1.000
    N1141    N        0.21258    0.32419    0.26340    1.000
    Si1142   Si       0.22219    0.32891    0.30912    1.000
    Si1143   Si       0.16413    0.31393    0.24979    1.000
    N1144    N        0.18739    0.46680    0.35690    1.000
    Si1145   Si       0.21313    0.47732    0.32203    1.000
    N1146    N        0.20467    0.39607    0.26203    1.000
    N1147    N        0.21998    0.46435    0.27942    1.000
    Si1148   Si       0.20568    0.48856    0.24535    1.000
    Si1149   Si       0.20507    0.26913    0.46548    1.000
    N1150    N        0.19553    0.27083    0.42163    1.000
    N1151    N        0.19892    0.31305    0.46814    1.000
    Si1152   Si       0.20278    0.31490    0.42591    1.000
    N1153    N        0.21653    0.37392    0.44384    1.000
    N1154    N        0.17457    0.33878    0.40658    1.000
    Si1155   Si       0.21871    0.34816    0.48339    1.000
    Si1156   Si       0.18725    0.38284    0.41360    1.000
    Si1157   Si       0.20660    0.47965    0.45954    1.000
    Si1158   Si       0.21397    0.44665    0.38770    1.000
    N1159    N        0.19196    0.46224    0.42290    1.000
    N1160    N        0.20771    0.40476    0.38307    1.000
    N1161    N        0.18175    0.47389    0.49545    1.000
    N1162    N        0.20933    0.35305    0.52434    1.000
    Si1163   Si       0.19606    0.29359    0.58415    1.000
    Si1164   Si       0.16958    0.34651    0.53939    1.000
    N1165    N        0.16881    0.30425    0.55123    1.000
    Si1166   Si       0.19492    0.40322    0.58159    1.000
    N1167    N        0.20257    0.43245    0.55073    1.000
    Si1168   Si       0.18568    0.47013    0.53938    1.000
    N1169    N        0.19757    0.49729    0.57287    1.000
    N1170    N        0.19284    0.41909    0.62384    1.000
    N1171    N        0.18212    0.29484    0.62606    1.000
    Si1172   Si       0.18967    0.35381    0.71902    1.000
    N1173    N        0.21096    0.33938    0.68322    1.000
    Si1174   Si       0.19548    0.30279    0.66578    1.000
    N1175    N        0.21913    0.26969    0.68102    1.000
    N1176    N        0.18751    0.31903    0.74310    1.000
    N1177    N        0.16989    0.46856    0.74295    1.000
    N1178    N        0.20609    0.41565    0.68375    1.000
    Si1179   Si       0.17145    0.40619    0.66022    1.000
    N1180    N        0.20422    0.38204    0.74750    1.000
    Si1181   Si       0.22190    0.44146    0.64964    1.000
    N1182    N        0.21449    0.48340    0.65477    1.000
    Si1183   Si       0.17771    0.51075    0.65200    1.000
    N1184    N        0.19112    0.35039    0.80765    1.000
    Si1185   Si       0.19388    0.31277    0.78453    1.000
    Si1186   Si       0.17645    0.35167    0.84845    1.000
    N1187    N        0.16681    0.30895    0.85689    1.000
    Si1188   Si       0.18071    0.38358    0.78327    1.000
    N1189    N        0.17845    0.42715    0.78876    1.000
    N1190    N        0.21247    0.46316    0.85303    1.000
    Si1191   Si       0.20511    0.45618    0.76609    1.000
    N1192    N        0.21677    0.49541    0.78392    1.000
    N1193    N        0.20682    0.36650    0.87529    1.000
    Si1194   Si       0.20103    0.28660    0.87484    1.000
    N1195    N        0.20203    0.29987    0.91729    1.000
    Si1196   Si       0.16926    0.28088    0.93844    1.000
    N1197    N        0.20407    0.46660    0.92340    1.000
    Si1198   Si       0.18839    0.38989    0.90763    1.000
    Si1199   Si       0.18430    0.46118    0.88358    1.000
    N1200    N        0.22108    0.40319    0.93460    1.000
    Si1201   Si       0.20265    0.43645    0.95410    1.000
    N1202    N        0.16776    0.42140    0.88797    1.000
    N1203    N        0.22530    0.44252    0.99006    1.000
    Si1204   Si       0.18589    0.54516    0.08265    1.000
    N1205    N        0.18883    0.58249    0.06245    1.000
    Si1206   Si       0.17576    0.61346    0.09091    1.000
    Si1207   Si       0.20139    0.58239    0.02039    1.000
    Si1208   Si       0.20823    0.52311    0.00148    1.000
    Si1209   Si       0.21125    0.67759    0.06724    1.000
    N1210    N        0.18516    0.71338    0.06372    1.000
    N1211    N        0.17570    0.65540    0.08096    1.000
    Si1212   Si       0.18055    0.73379    0.02299    1.000
    N1213    N        0.21621    0.66767    0.02647    1.000
    Si1214   Si       0.19061    0.64657    0.00031    1.000
    N1215    N        0.21835    0.72986    0.00012    1.000
    N1216    N        0.17976    0.55312    0.12601    1.000
    Si1217   Si       0.17803    0.51540    0.14832    1.000
    N1218    N        0.19127    0.61782    0.13083    1.000
    N1219    N        0.19394    0.58743    0.19248    1.000
    Si1220   Si       0.21107    0.54814    0.20715    1.000
    N1221    N        0.17608    0.52672    0.18905    1.000
    Si1222   Si       0.18654    0.62248    0.21975    1.000
    Si1223   Si       0.17208    0.58584    0.15552    1.000
    N1224    N        0.18678    0.75886    0.12261    1.000
    Si1225   Si       0.20881    0.65186    0.14959    1.000
    N1226    N        0.17218    0.72901    0.18992    1.000
    N1227    N        0.19543    0.65885    0.19006    1.000
    Si1228   Si       0.17924    0.72277    0.14558    1.000
    Si1229   Si       0.20136    0.69905    0.20735    1.000
    N1230    N        0.21387    0.69728    0.14155    1.000
    N1231    N        0.20215    0.57821    0.31733    1.000
    Si1232   Si       0.18361    0.61503    0.30383    1.000
    Si1233   Si       0.18422    0.54722    0.28881    1.000
    N1234    N        0.21042    0.53301    0.25003    1.000
    N1235    N        0.18977    0.51426    0.31585    1.000
    N1236    N        0.17365    0.60986    0.26068    1.000
    Si1237   Si       0.22329    0.56945    0.35703    1.000
    Si1238   Si       0.17370    0.51119    0.36063    1.000
    N1239    N        0.21014    0.71858    0.33120    1.000
    N1240    N        0.20835    0.64918    0.30426    1.000
    Si1241   Si       0.21762    0.66496    0.26462    1.000
    Si1242   Si       0.16773    0.72823    0.32443    1.000
    N1243    N        0.18484    0.68658    0.24608    1.000
    N1244    N        0.19457    0.66546    0.36817    1.000
    Si1245   Si       0.22167    0.67638    0.33566    1.000
    Si1246   Si       0.17137    0.62884    0.37237    1.000
    N1247    N        0.20521    0.60141    0.38361    1.000
    Si1248   Si       0.18655    0.58242    0.47232    1.000
    N1249    N        0.21113    0.52291    0.45694    1.000
    Si1250   Si       0.18743    0.53532    0.42136    1.000
    N1251    N        0.20956    0.53209    0.38178    1.000
    N1252    N        0.17433    0.62259    0.48800    1.000
    N1253    N        0.16422    0.56939    0.43808    1.000
    N1254    N        0.22682    0.59553    0.45782    1.000
    Si1255   Si       0.20546    0.65087    0.47353    1.000
    N1256    N        0.18772    0.68941    0.48614    1.000
    Si1257   Si       0.16864    0.71829    0.45992    1.000
    N1258    N        0.19557    0.75113    0.46185    1.000
    N1259    N        0.21380    0.65628    0.43301    1.000
    Si1260   Si       0.20125    0.68632    0.40557    1.000
    N1261    N        0.20110    0.56981    0.56826    1.000
    Si1262   Si       0.19532    0.58016    0.60904    1.000
    N1263    N        0.18027    0.55501    0.50491    1.000
    Si1264   Si       0.21911    0.53258    0.50052    1.000
    Si1265   Si       0.20278    0.68055    0.52614    1.000
    Si1266   Si       0.18951    0.68628    0.58872    1.000
    N1267    N        0.20871    0.70855    0.55581    1.000
    N1268    N        0.21212    0.65066    0.59284    1.000
    N1269    N        0.16628    0.66225    0.54458    1.000
    Si1270   Si       0.22462    0.74619    0.56262    1.000
    N1271    N        0.17578    0.52133    0.69579    1.000
    Si1272   Si       0.21158    0.62514    0.69612    1.000
    N1273    N        0.18424    0.59142    0.69914    1.000
    Si1274   Si       0.20537    0.55276    0.70643    1.000
    N1275    N        0.17064    0.54912    0.63055    1.000
    Si1276   Si       0.16800    0.64460    0.64190    1.000
    Si1277   Si       0.22460    0.74432    0.69404    1.000
    N1278    N        0.21227    0.70845    0.62063    1.000
    Si1279   Si       0.19328    0.74716    0.62547    1.000
    N1280    N        0.21040    0.64791    0.73254    1.000
    N1281    N        0.18825    0.72960    0.71376    1.000
    N1282    N        0.20298    0.65543    0.66411    1.000
    Si1283   Si       0.20122    0.59931    0.82162    1.000
    N1284    N        0.18661    0.55839    0.81405    1.000
    Si1285   Si       0.19195    0.53415    0.77807    1.000
    N1286    N        0.18023    0.62402    0.79247    1.000
    N1287    N        0.19878    0.61449    0.86151    1.000
    N1288    N        0.21685    0.55687    0.75010    1.000
    N1289    N        0.18141    0.69301    0.77466    1.000
    Si1290   Si       0.20451    0.65451    0.77294    1.000
    Si1291   Si       0.20068    0.72581    0.75549    1.000
    N1292    N        0.19881    0.74635    0.87325    1.000
    Si1293   Si       0.20226    0.57085    0.94463    1.000
    N1294    N        0.20308    0.53746    0.91440    1.000
    N1295    N        0.18348    0.55918    0.98551    1.000
    N1296    N        0.17569    0.59931    0.92640    1.000
    N1297    N        0.21792    0.61227    0.99285    1.000
    N1298    N        0.18301    0.66653    0.96165    1.000
    Si1299   Si       0.21859    0.66289    0.93481    1.000
    N1300    N        0.22162    0.68657    0.89863    1.000
    Si1301   Si       0.18562    0.70712    0.88583    1.000
    Si1302   Si       0.19156    0.85771    0.02266    1.000
    Si1303   Si       0.18600    0.83698    0.08809    1.000
    N1304    N        0.20062    0.87616    0.09759    1.000
    N1305    N        0.21469    0.80502    0.09256    1.000
    N1306    N        0.17249    0.77106    0.04730    1.000
    Si1307   Si       0.19720    0.75870    0.07911    1.000
    N1308    N        0.16456    0.83796    0.05103    1.000
    Si1309   Si       0.19930    0.91096    0.07210    1.000
    N1310    N        0.19610    0.99016    0.04284    1.000
    N1311    N        0.21012    0.89699    0.03110    1.000
    N1312    N        0.20873    0.99790    0.11041    1.000
    Si1313   Si       0.22476    0.99426    0.00917    1.000
    Si1314   Si       0.21106    0.87518    0.14017    1.000
    Si1315   Si       0.19743    0.80079    0.13656    1.000
    N1316    N        0.19291    0.80032    0.18090    1.000
    Si1317   Si       0.17723    0.87612    0.20508    1.000
    N1318    N        0.21633    0.85872    0.21275    1.000
    N1319    N        0.17353    0.87742    0.16187    1.000
    N1320    N        0.18628    0.78961    0.24519    1.000
    Si1321   Si       0.17553    0.95970    0.20824    1.000
    Si1322   Si       0.18443    0.99364    0.14612    1.000
    N1323    N        0.17827    0.91664    0.21994    1.000
    N1324    N        0.19699    0.95950    0.17034    1.000
    N1325    N        0.18834    0.99530    0.23125    1.000
    Si1326   Si       0.19268    0.79069    0.28843    1.000
    N1327    N        0.18505    0.83181    0.30421    1.000
    Si1328   Si       0.21642    0.86139    0.30873    1.000
    N1329    N        0.20477    0.78294    0.37010    1.000
    N1330    N        0.21600    0.89624    0.33627    1.000
    N1331    N        0.20741    0.89455    0.27390    1.000
    Si1332   Si       0.18527    0.98488    0.27405    1.000
    N1333    N        0.21801    0.96397    0.29280    1.000
    Si1334   Si       0.16841    0.91206    0.26471    1.000
    Si1335   Si       0.18573    0.85251    0.42878    1.000
    N1336    N        0.20283    0.85189    0.38919    1.000
    N1337    N        0.20309    0.81735    0.44762    1.000
    Si1338   Si       0.17383    0.78578    0.45449    1.000
    N1339    N        0.17297    0.97565    0.49221    1.000
    N1340    N        0.21788    0.00504    0.37936    1.000
    Si1341   Si       0.21840    0.89430    0.37972    1.000
    N1342    N        0.20409    0.96052    0.43456    1.000
    Si1343   Si       0.18172    0.92251    0.43728    1.000
    N1344    N        0.20077    0.88620    0.45283    1.000
    Si1345   Si       0.18911    0.99620    0.45908    1.000
    N1346    N        0.18019    0.91310    0.39376    1.000
    Si1347   Si       0.19516    0.81394    0.59399    1.000
    N1348    N        0.17910    0.82708    0.55378    1.000
    N1349    N        0.20193    0.77044    0.58972    1.000
    Si1350   Si       0.21432    0.84893    0.54360    1.000
    N1351    N        0.20425    0.89202    0.54666    1.000
    Si1352   Si       0.17969    0.96941    0.53498    1.000
    N1353    N        0.21667    0.95538    0.55230    1.000
    N1354    N        0.20307    0.99093    0.61306    1.000
    N1355    N        0.18863    0.87568    0.62057    1.000
    Si1356   Si       0.20782    0.80704    0.66324    1.000
    N1357    N        0.19565    0.82954    0.69757    1.000
    N1358    N        0.17658    0.80992    0.63169    1.000
    N1359    N        0.21387    0.76500    0.65898    1.000
    N1360    N        0.17347    0.87613    0.73936    1.000
    Si1361   Si       0.22378    0.82187    0.72853    1.000
    Si1362   Si       0.18543    0.92339    0.66596    1.000
    N1363    N        0.20184    0.95952    0.68129    1.000
    Si1364   Si       0.21394    0.99190    0.65556    1.000
    N1365    N        0.17721    0.95347    0.74297    1.000
    N1366    N        0.21681    0.89481    0.67478    1.000
    Si1367   Si       0.21464    0.95769    0.72221    1.000
    Si1368   Si       0.20178    0.79462    0.79814    1.000
    N1369    N        0.17652    0.80002    0.83401    1.000
    N1370    N        0.21338    0.82699    0.77122    1.000
    Si1371   Si       0.18686    0.86966    0.77981    1.000
    N1372    N        0.18433    0.76170    0.77357    1.000
    Si1373   Si       0.17555    0.95253    0.78757    1.000
    N1374    N        0.21734    0.95651    0.79532    1.000
    N1375    N        0.22164    0.88703    0.79590    1.000
    N1376    N        0.16811    0.85955    0.98648    1.000
    N1377    N        0.21270    0.84481    0.92562    1.000
    Si1378   Si       0.20513    0.79999    0.91841    1.000
    Si1379   Si       0.19426    0.87279    0.95255    1.000
    Si1380   Si       0.19618    0.87639    0.88717    1.000
    N1381    N        0.21324    0.78174    0.95676    1.000
    Si1382   Si       0.17372    0.98627    0.95656    1.000
    Si1383   Si       0.17267    0.93727    0.90785    1.000
    Si1384   Si       0.21742    0.00387    0.89267    1.000
    N1385    N        0.20995    0.92059    0.88811    1.000
    N1386    N        0.19412    0.97688    0.91810    1.000
    Si1387   Si       0.24486    0.06252    0.04480    1.000
    Si1388   Si       0.26856    0.09700    0.11004    1.000
    N1389    N        0.26445    0.06236    0.08248    1.000
    N1390    N        0.26819    0.09337    0.02374    1.000
    N1391    N        0.25477    0.02352    0.02407    1.000
    N1392    N        0.26382    0.13088    0.08226    1.000
    Si1393   Si       0.26364    0.19432    0.03035    1.000
    N1394    N        0.24872    0.23060    0.01014    1.000
    N1395    N        0.24785    0.24853    0.07929    1.000
    Si1396   Si       0.27327    0.21917    0.09770    1.000
    N1397    N        0.24457    0.19222    0.11475    1.000
    Si1398   Si       0.23071    0.15833    0.08537    1.000
    Si1399   Si       0.22876    0.25688    0.04092    1.000
    N1400    N        0.28668    0.15859    0.01700    1.000
    N1401    N        0.25568    0.07405    0.14746    1.000
    N1402    N        0.26402    0.11616    0.22732    1.000
    Si1403   Si       0.26742    0.03209    0.22318    1.000
    N1404    N        0.22818    0.05393    0.21866    1.000
    N1405    N        0.27688    0.01896    0.18305    1.000
    Si1406   Si       0.27150    0.22686    0.21668    1.000
    N1407    N        0.27684    0.18496    0.22112    1.000
    Si1408   Si       0.27804    0.14731    0.20226    1.000
    Si1409   Si       0.23094    0.16583    0.14651    1.000
    N1410    N        0.23246    0.23430    0.19682    1.000
    N1411    N        0.26559    0.14369    0.15974    1.000
    Si1412   Si       0.24298    0.02777    0.34882    1.000
    N1413    N        0.27253    0.08341    0.28612    1.000
    Si1414   Si       0.23325    0.09338    0.29741    1.000
    N1415    N        0.26097    0.01700    0.26207    1.000
    N1416    N        0.23247    0.13245    0.31807    1.000
    N1417    N        0.26960    0.05422    0.37159    1.000
    Si1418   Si       0.25289    0.17187    0.31680    1.000
    N1419    N        0.26326    0.18263    0.35792    1.000
    N1420    N        0.22671    0.25398    0.26215    1.000
    Si1421   Si       0.26748    0.25733    0.27909    1.000
    Si1422   Si       0.25351    0.08672    0.39742    1.000
    Si1423   Si       0.25747    0.03145    0.45707    1.000
    N1424    N        0.25270    0.07192    0.44004    1.000
    Si1425   Si       0.26045    0.10880    0.46694    1.000
    N1426    N        0.28333    0.11983    0.39997    1.000
    Si1427   Si       0.26419    0.21242    0.39069    1.000
    Si1428   Si       0.26899    0.23689    0.48832    1.000
    Si1429   Si       0.24022    0.18294    0.45387    1.000
    N1430    N        0.26377    0.25472    0.38986    1.000
    N1431    N        0.27825    0.20096    0.46657    1.000
    N1432    N        0.23762    0.14124    0.45196    1.000
    N1433    N        0.22952    0.20428    0.41653    1.000
    Si1434   Si       0.24632    0.11244    0.54066    1.000
    Si1435   Si       0.27101    0.04281    0.56377    1.000
    N1436    N        0.23312    0.02320    0.55550    1.000
    N1437    N        0.27879    0.08612    0.55585    1.000
    N1438    N        0.23909    0.09472    0.50193    1.000
    N1439    N        0.27807    0.03500    0.60617    1.000
    N1440    N        0.25673    0.20832    0.58884    1.000
    N1441    N        0.25260    0.15595    0.53742    1.000
    N1442    N        0.25823    0.23305    0.53125    1.000
    Si1443   Si       0.22687    0.22365    0.55912    1.000
    Si1444   Si       0.27908    0.23975    0.61327    1.000
    Si1445   Si       0.27874    0.18118    0.56060    1.000
    N1446    N        0.24570    0.09443    0.62342    1.000
    N1447    N        0.26791    0.05204    0.71441    1.000
    Si1448   Si       0.24099    0.08172    0.72501    1.000
    Si1449   Si       0.24640    0.12585    0.65469    1.000
    N1450    N        0.23170    0.11032    0.69189    1.000
    Si1451   Si       0.26344    0.00882    0.70743    1.000
    Si1452   Si       0.24158    0.19987    0.74074    1.000
    N1453    N        0.27159    0.16973    0.72443    1.000
    Si1454   Si       0.26866    0.17726    0.62713    1.000
    N1455    N        0.23000    0.15930    0.62890    1.000
    N1456    N        0.28290    0.14736    0.65785    1.000
    N1457    N        0.24321    0.02328    0.80270    1.000
    N1458    N        0.25390    0.06064    0.85992    1.000
    N1459    N        0.25524    0.10312    0.76036    1.000
    N1460    N        0.24992    0.12432    0.83272    1.000
    Si1461   Si       0.27402    0.03950    0.82909    1.000
    Si1462   Si       0.27328    0.10400    0.80049    1.000
    Si1463   Si       0.22537    0.09264    0.85316    1.000
    N1464    N        0.25886    0.23679    0.75973    1.000
    Si1465   Si       0.25733    0.16243    0.85099    1.000
    N1466    N        0.25891    0.25075    0.83014    1.000
    Si1467   Si       0.26553    0.14596    0.75921    1.000
    Si1468   Si       0.23417    0.24932    0.79310    1.000
    N1469    N        0.23350    0.17336    0.77395    1.000
    N1470    N        0.23397    0.07856    0.97337    1.000
    N1471    N        0.27512    0.09701    0.91320    1.000
    Si1472   Si       0.26281    0.05720    0.90136    1.000
    Si1473   Si       0.27558    0.07822    0.98226    1.000
    Si1474   Si       0.24323    0.12809    0.91297    1.000
    N1475    N        0.24238    0.21315    0.94141    1.000
    Si1476   Si       0.23718    0.24668    0.97078    1.000
    N1477    N        0.25697    0.16507    0.89366    1.000
    Si1478   Si       0.27312    0.19637    0.91753    1.000
    N1479    N        0.26368    0.36322    0.08955    1.000
    Si1480   Si       0.25825    0.28758    0.09605    1.000
    Si1481   Si       0.23797    0.33433    0.01335    1.000
    N1482    N        0.24605    0.29454    0.02906    1.000
    N1483    N        0.28102    0.34808    0.01889    1.000
    Si1484   Si       0.26980    0.45205    0.05650    1.000
    N1485    N        0.27039    0.46891    0.10367    1.000
    N1486    N        0.27903    0.46822    0.01656    1.000
    Si1487   Si       0.22801    0.48425    0.09739    1.000
    N1488    N        0.22574    0.45805    0.06275    1.000
    N1489    N        0.24097    0.30225    0.19964    1.000
    Si1490   Si       0.26634    0.33677    0.19095    1.000
    Si1491   Si       0.23828    0.27099    0.17141    1.000
    N1492    N        0.25338    0.36534    0.22287    1.000
    N1493    N        0.25845    0.36049    0.15672    1.000
    N1494    N        0.26749    0.27879    0.13844    1.000
    N1495    N        0.23437    0.42725    0.14714    1.000
    N1496    N        0.27030    0.49549    0.24124    1.000
    Si1497   Si       0.27264    0.44080    0.13877    1.000
    Si1498   Si       0.25707    0.48671    0.19982    1.000
    N1499    N        0.26625    0.33173    0.31429    1.000
    Si1500   Si       0.23616    0.26465    0.35218    1.000
    N1501    N        0.26924    0.37855    0.36388    1.000
    N1502    N        0.28009    0.29319    0.25569    1.000
    N1503    N        0.26716    0.26129    0.32176    1.000
    N1504    N        0.23903    0.42793    0.32518    1.000
    N1505    N        0.25015    0.49172    0.34251    1.000
    Si1506   Si       0.27399    0.45434    0.33749    1.000
    Si1507   Si       0.23377    0.42446    0.27954    1.000
    N1508    N        0.27305    0.42344    0.25809    1.000
    Si1509   Si       0.23110    0.39225    0.34789    1.000
    N1510    N        0.26137    0.34556    0.47637    1.000
    Si1511   Si       0.25700    0.35739    0.43535    1.000
    Si1512   Si       0.26525    0.28093    0.42523    1.000
    N1513    N        0.24545    0.31949    0.41769    1.000
    N1514    N        0.24789    0.26366    0.46120    1.000
    Si1515   Si       0.27162    0.46945    0.42437    1.000
    N1516    N        0.24794    0.46720    0.46093    1.000
    N1517    N        0.25660    0.44729    0.39040    1.000
    Si1518   Si       0.24024    0.35306    0.55516    1.000
    Si1519   Si       0.26502    0.31633    0.61320    1.000
    N1520    N        0.23301    0.31596    0.58099    1.000
    N1521    N        0.28025    0.35099    0.54212    1.000
    Si1522   Si       0.28099    0.46037    0.61339    1.000
    N1523    N        0.23776    0.39003    0.57804    1.000
    N1524    N        0.23622    0.50003    0.52293    1.000
    Si1525   Si       0.24724    0.42709    0.55520    1.000
    N1526    N        0.25811    0.46367    0.57739    1.000
    N1527    N        0.26877    0.43150    0.51998    1.000
    Si1528   Si       0.24016    0.50223    0.56703    1.000
    Si1529   Si       0.26394    0.39063    0.61324    1.000
    Si1530   Si       0.26019    0.46998    0.50112    1.000
    N1531    N        0.26634    0.27734    0.63024    1.000
    Si1532   Si       0.25338    0.35020    0.67884    1.000
    N1533    N        0.26072    0.35342    0.63522    1.000
    Si1534   Si       0.26234    0.27270    0.67450    1.000
    N1535    N        0.27458    0.31376    0.68864    1.000
    N1536    N        0.26070    0.37946    0.70998    1.000
    N1537    N        0.27576    0.50063    0.62934    1.000
    Si1538   Si       0.25326    0.50342    0.66668    1.000
    N1539    N        0.25888    0.42834    0.63333    1.000
    Si1540   Si       0.22892    0.40759    0.72128    1.000
    Si1541   Si       0.27922    0.46046    0.73135    1.000
    N1542    N        0.23853    0.44599    0.74049    1.000
    N1543    N        0.28058    0.47525    0.68993    1.000
    Si1544   Si       0.25928    0.29409    0.82662    1.000
    N1545    N        0.23503    0.30890    0.85991    1.000
    N1546    N        0.27533    0.37408    0.85329    1.000
    N1547    N        0.22934    0.29148    0.79451    1.000
    N1548    N        0.25375    0.42074    0.81135    1.000
    Si1549   Si       0.25183    0.45309    0.83924    1.000
    Si1550   Si       0.25963    0.50431    0.79217    1.000
    N1551    N        0.28185    0.48412    0.82386    1.000
    Si1552   Si       0.24557    0.34874    0.87372    1.000
    N1553    N        0.25792    0.34553    0.91457    1.000
    Si1554   Si       0.25289    0.37440    0.94627    1.000
    N1555    N        0.25847    0.28139    0.95456    1.000
    Si1556   Si       0.23584    0.31526    0.93999    1.000
    N1557    N        0.23281    0.34432    0.97198    1.000
    N1558    N        0.28644    0.45856    0.94503    1.000
    Si1559   Si       0.22334    0.50340    0.92831    1.000
    N1560    N        0.27280    0.44216    0.87552    1.000
    Si1561   Si       0.25869    0.46902    0.97865    1.000
    N1562    N        0.23525    0.50626    0.97023    1.000
    Si1563   Si       0.25680    0.54683    0.06195    1.000
    N1564    N        0.23710    0.55155    0.02239    1.000
    N1565    N        0.22469    0.52470    0.08342    1.000
    Si1566   Si       0.26890    0.71977    0.06319    1.000
    N1567    N        0.25078    0.68632    0.08459    1.000
    N1568    N        0.27604    0.70680    0.02366    1.000
    Si1569   Si       0.24138    0.69295    0.00068    1.000
    N1570    N        0.24007    0.75165    0.06733    1.000
    Si1571   Si       0.27566    0.55863    0.19068    1.000
    N1572    N        0.24581    0.52728    0.18723    1.000
    N1573    N        0.25722    0.57320    0.23027    1.000
    Si1574   Si       0.26499    0.61417    0.23752    1.000
    N1575    N        0.28140    0.58341    0.15611    1.000
    N1576    N        0.22715    0.63297    0.23819    1.000
    N1577    N        0.25350    0.64817    0.14971    1.000
    N1578    N        0.23207    0.72810    0.22712    1.000
    Si1579   Si       0.25443    0.68886    0.12846    1.000
    N1580    N        0.26547    0.55749    0.36336    1.000
    Si1581   Si       0.25671    0.53596    0.25367    1.000
    N1582    N        0.28097    0.61828    0.27825    1.000
    N1583    N        0.25550    0.68329    0.27216    1.000
    N1584    N        0.26434    0.66070    0.34143    1.000
    Si1585   Si       0.27912    0.65896    0.29829    1.000
    Si1586   Si       0.22549    0.74467    0.36375    1.000
    Si1587   Si       0.26877    0.71599    0.24717    1.000
    Si1588   Si       0.25145    0.51872    0.37686    1.000
    Si1589   Si       0.22824    0.61581    0.41943    1.000
    Si1590   Si       0.26422    0.58519    0.47785    1.000
    N1591    N        0.26774    0.62032    0.40624    1.000
    N1592    N        0.27737    0.50893    0.40870    1.000
    N1593    N        0.23019    0.72084    0.39842    1.000
    Si1594   Si       0.26677    0.71725    0.42018    1.000
    N1595    N        0.25664    0.71636    0.46210    1.000
    Si1596   Si       0.23441    0.75250    0.47911    1.000
    N1597    N        0.25575    0.61067    0.56403    1.000
    N1598    N        0.26358    0.53915    0.57804    1.000
    Si1599   Si       0.24286    0.57017    0.55461    1.000
    N1600    N        0.24820    0.56280    0.51144    1.000
    Si1601   Si       0.24655    0.62920    0.60546    1.000
    Si1602   Si       0.27066    0.63344    0.53089    1.000
    N1603    N        0.23877    0.65991    0.50974    1.000
    N1604    N        0.26535    0.75332    0.57804    1.000
    Si1605   Si       0.27318    0.75384    0.53570    1.000
    N1606    N        0.23392    0.76108    0.52212    1.000
    N1607    N        0.27972    0.71295    0.52758    1.000
    Si1608   Si       0.26963    0.68836    0.49400    1.000
    N1609    N        0.23173    0.59420    0.62809    1.000
    Si1610   Si       0.25693    0.57954    0.66143    1.000
    N1611    N        0.25220    0.61092    0.69095    1.000
    N1612    N        0.23935    0.54409    0.67926    1.000
    Si1613   Si       0.27869    0.62930    0.72154    1.000
    N1614    N        0.27977    0.67247    0.73061    1.000
    Si1615   Si       0.23270    0.68310    0.64651    1.000
    N1616    N        0.24669    0.70972    0.68064    1.000
    N1617    N        0.26655    0.65769    0.63127    1.000
    N1618    N        0.24076    0.60235    0.80605    1.000
    N1619    N        0.26459    0.54528    0.80248    1.000
    Si1620   Si       0.24959    0.57507    0.77352    1.000
    Si1621   Si       0.27738    0.56901    0.83651    1.000
    N1622    N        0.27924    0.59719    0.75087    1.000
    Si1623   Si       0.27178    0.63662    0.81303    1.000
    Si1624   Si       0.27365    0.69184    0.77205    1.000
    N1625    N        0.24169    0.66422    0.79131    1.000
    N1626    N        0.26380    0.64550    0.85799    1.000
    N1627    N        0.26342    0.72296    0.85341    1.000
    N1628    N        0.24382    0.72309    0.75745    1.000
    N1629    N        0.25637    0.57900    0.87485    1.000
    Si1630   Si       0.23849    0.61709    0.87956    1.000
    Si1631   Si       0.26448    0.55151    0.90808    1.000
    N1632    N        0.24653    0.56729    0.94745    1.000
    Si1633   Si       0.25144    0.62051    0.96582    1.000
    Si1634   Si       0.26274    0.56015    0.98631    1.000
    N1635    N        0.24032    0.62755    0.92262    1.000
    N1636    N        0.26059    0.50609    0.90454    1.000
    N1637    N        0.27361    0.73349    0.95769    1.000
    N1638    N        0.25385    0.66737    0.96788    1.000
    Si1639   Si       0.25971    0.68546    0.87652    1.000
    Si1640   Si       0.25421    0.78929    0.08281    1.000
    Si1641   Si       0.26754    0.82395    0.01162    1.000
    N1642    N        0.27339    0.81814    0.05400    1.000
    N1643    N        0.22805    0.83676    0.00942    1.000
    N1644    N        0.27671    0.79032    0.11923    1.000
    Si1645   Si       0.24514    0.97211    0.10281    1.000
    Si1646   Si       0.23977    0.91511    0.00404    1.000
    N1647    N        0.22962    0.93653    0.08531    1.000
    N1648    N        0.28047    0.98842    0.08665    1.000
    Si1649   Si       0.22369    0.76877    0.24084    1.000
    N1650    N        0.24985    0.79509    0.21896    1.000
    Si1651   Si       0.27324    0.82828    0.13914    1.000
    N1652    N        0.22891    0.83546    0.14857    1.000
    Si1653   Si       0.22907    0.82128    0.19122    1.000
    Si1654   Si       0.23854    0.87735    0.24600    1.000
    N1655    N        0.27540    0.89155    0.22824    1.000
    N1656    N        0.26088    0.96499    0.14179    1.000
    N1657    N        0.24159    0.90346    0.15049    1.000
    N1658    N        0.26396    0.95434    0.20270    1.000
    Si1659   Si       0.23640    0.94216    0.16952    1.000
    Si1660   Si       0.28159    0.90121    0.12927    1.000
    N1661    N        0.25132    0.85182    0.27854    1.000
    N1662    N        0.24235    0.83423    0.33582    1.000
    Si1663   Si       0.27459    0.83546    0.30952    1.000
    N1664    N        0.22841    0.76909    0.28424    1.000
    Si1665   Si       0.26644    0.76251    0.30506    1.000
    N1666    N        0.26264    0.75908    0.34751    1.000
    Si1667   Si       0.25690    0.98236    0.28687    1.000
    N1668    N        0.27200    0.91947    0.32069    1.000
    Si1669   Si       0.27620    0.91772    0.36382    1.000
    N1670    N        0.26837    0.00023    0.32572    1.000
    Si1671   Si       0.22895    0.92245    0.30356    1.000
    Si1672   Si       0.27953    0.85227    0.41231    1.000
    N1673    N        0.26383    0.78399    0.46971    1.000
    N1674    N        0.26876    0.81429    0.39481    1.000
    N1675    N        0.26518    0.85648    0.45322    1.000
    Si1676   Si       0.23950    0.81998    0.46831    1.000
    Si1677   Si       0.22913    0.81933    0.37397    1.000
    Si1678   Si       0.23417    0.87917    0.47895    1.000
    N1679    N        0.26249    0.88280    0.38585    1.000
    Si1680   Si       0.28541    0.92715    0.48223    1.000
    Si1681   Si       0.23281    0.97494    0.40619    1.000
    N1682    N        0.24559    0.94357    0.37942    1.000
    N1683    N        0.26392    0.99797    0.42975    1.000
    N1684    N        0.24492    0.91612    0.49671    1.000
    Si1685   Si       0.27013    0.85364    0.58997    1.000
    N1686    N        0.23428    0.83215    0.57840    1.000
    N1687    N        0.22926    0.84381    0.50408    1.000
    N1688    N        0.25530    0.88987    0.61076    1.000
    N1689    N        0.26606    0.96675    0.60370    1.000
    Si1690   Si       0.23776    0.91999    0.54212    1.000
    N1691    N        0.27965    0.91937    0.55592    1.000
    Si1692   Si       0.27987    0.92557    0.59897    1.000
    Si1693   Si       0.23120    0.98401    0.58234    1.000
    N1694    N        0.24922    0.85840    0.73045    1.000
    N1695    N        0.24021    0.83078    0.64990    1.000
    N1696    N        0.23618    0.77906    0.72215    1.000
    Si1697   Si       0.27798    0.81144    0.64616    1.000
    Si1698   Si       0.22778    0.87188    0.63917    1.000
    Si1699   Si       0.28199    0.99897    0.62979    1.000
    N1700    N        0.24819    0.93062    0.72835    1.000
    Si1701   Si       0.24742    0.89470    0.70522    1.000
    N1702    N        0.23492    0.99336    0.73663    1.000
    N1703    N        0.25552    0.00069    0.66508    1.000
    N1704    N        0.26887    0.84222    0.81111    1.000
    Si1705   Si       0.25112    0.86055    0.77584    1.000
    N1706    N        0.23749    0.77885    0.82003    1.000
    Si1707   Si       0.26634    0.87544    0.83992    1.000
    Si1708   Si       0.27321    0.79976    0.81148    1.000
    N1709    N        0.23572    0.86275    0.86736    1.000
    Si1710   Si       0.23749    0.76014    0.85960    1.000
    Si1711   Si       0.26427    0.76072    0.74988    1.000
    N1712    N        0.27945    0.89890    0.77713    1.000
    N1713    N        0.25914    0.91752    0.84042    1.000
    Si1714   Si       0.25074    0.92476    0.79859    1.000
    Si1715   Si       0.24203    0.98916    0.77992    1.000
    N1716    N        0.27977    0.96313    0.78730    1.000
    N1717    N        0.23863    0.79524    0.88995    1.000
    Si1718   Si       0.25031    0.83722    0.89970    1.000
    N1719    N        0.27015    0.78490    0.99300    1.000
    Si1720   Si       0.24062    0.75768    0.97548    1.000
    N1721    N        0.22122    0.90288    0.96554    1.000
    N1722    N        0.27995    0.91797    0.90245    1.000
    Si1723   Si       0.24853    0.93546    0.87732    1.000
    N1724    N        0.25315    0.97828    0.88001    1.000
    N1725    N        0.24604    0.95806    0.00250    1.000
    N1726    N        0.31700    0.03917    0.04739    1.000
    N1727    N        0.32965    0.11235    0.05116    1.000
    Si1728   Si       0.29827    0.01699    0.01597    1.000
    Si1729   Si       0.29398    0.03015    0.08500    1.000
    Si1730   Si       0.28765    0.12360    0.04730    1.000
    N1731    N        0.31556    0.03475    0.12236    1.000
    N1732    N        0.30780    0.10421    0.12263    1.000
    N1733    N        0.29334    0.20526    0.06203    1.000
    Si1734   Si       0.33591    0.20868    0.05630    1.000
    N1735    N        0.30044    0.05909    0.23810    1.000
    N1736    N        0.32290    0.06888    0.17308    1.000
    Si1737   Si       0.28928    0.04907    0.15478    1.000
    Si1738   Si       0.33604    0.05742    0.21298    1.000
    Si1739   Si       0.30921    0.13988    0.14887    1.000
    Si1740   Si       0.34031    0.07653    0.13015    1.000
    N1741    N        0.32016    0.14473    0.19082    1.000
    N1742    N        0.30315    0.22367    0.13009    1.000
    Si1743   Si       0.34144    0.20429    0.13467    1.000
    N1744    N        0.29665    0.25145    0.19395    1.000
    N1745    N        0.34520    0.16235    0.13429    1.000
    N1746    N        0.32066    0.02996    0.30402    1.000
    N1747    N        0.32682    0.12128    0.27427    1.000
    Si1748   Si       0.29544    0.10105    0.25180    1.000
    Si1749   Si       0.28808    0.04442    0.27909    1.000
    N1750    N        0.33933    0.07224    0.35200    1.000
    N1751    N        0.28731    0.17202    0.29158    1.000
    N1752    N        0.32112    0.14045    0.34971    1.000
    Si1753   Si       0.30549    0.19015    0.25491    1.000
    N1754    N        0.32446    0.23755    0.34939    1.000
    Si1755   Si       0.32307    0.15292    0.30830    1.000
    N1756    N        0.29325    0.23203    0.25592    1.000
    Si1757   Si       0.31130    0.04859    0.37464    1.000
    N1758    N        0.30242    0.11231    0.46481    1.000
    Si1759   Si       0.31521    0.10225    0.42492    1.000
    Si1760   Si       0.32829    0.03344    0.44784    1.000
    N1761    N        0.29546    0.03063    0.47926    1.000
    N1762    N        0.32134    0.06130    0.41534    1.000
    Si1763   Si       0.33143    0.13041    0.48918    1.000
    N1764    N        0.34146    0.16949    0.47246    1.000
    N1765    N        0.30330    0.19235    0.40390    1.000
    Si1766   Si       0.29227    0.15771    0.37921    1.000
    Si1767   Si       0.33800    0.22252    0.39136    1.000
    Si1768   Si       0.31690    0.19453    0.44741    1.000
    N1769    N        0.32356    0.09481    0.60148    1.000
    Si1770   Si       0.32114    0.09835    0.55755    1.000
    N1771    N        0.30284    0.01862    0.54846    1.000
    Si1772   Si       0.28671    0.07750    0.61913    1.000
    N1773    N        0.32514    0.13433    0.53282    1.000
    N1774    N        0.31577    0.19729    0.54144    1.000
    Si1775   Si       0.30430    0.23923    0.54051    1.000
    N1776    N        0.29580    0.16095    0.59601    1.000
    Si1777   Si       0.33482    0.15968    0.61108    1.000
    N1778    N        0.30806    0.25178    0.58183    1.000
    N1779    N        0.30836    0.25775    0.50077    1.000
    N1780    N        0.33463    0.04794    0.72024    1.000
    N1781    N        0.30771    0.07782    0.65884    1.000
    Si1782   Si       0.30516    0.07426    0.70079    1.000
    N1783    N        0.31041    0.11482    0.71513    1.000
    Si1784   Si       0.33220    0.00776    0.73635    1.000
    Si1785   Si       0.31660    0.22518    0.67521    1.000
    N1786    N        0.29294    0.25377    0.70249    1.000
    N1787    N        0.28198    0.21381    0.64829    1.000
    Si1788   Si       0.30324    0.15532    0.69429    1.000
    N1789    N        0.33064    0.18949    0.69740    1.000
    Si1790   Si       0.29793    0.25079    0.74664    1.000
    N1791    N        0.29844    0.07159    0.81222    1.000
    Si1792   Si       0.32879    0.12378    0.75276    1.000
    Si1793   Si       0.33945    0.08394    0.81511    1.000
    N1794    N        0.34030    0.12321    0.83949    1.000
    N1795    N        0.30140    0.13844    0.78359    1.000
    N1796    N        0.29312    0.18131    0.83563    1.000
    N1797    N        0.32999    0.22408    0.75982    1.000
    Si1798   Si       0.32405    0.15692    0.81738    1.000
    N1799    N        0.32691    0.24535    0.83005    1.000
    Si1800   Si       0.28924    0.22402    0.84623    1.000
    N1801    N        0.29510    0.02893    0.90996    1.000
    Si1802   Si       0.31665    0.10562    0.92817    1.000
    N1803    N        0.30203    0.11201    0.96968    1.000
    N1804    N        0.30057    0.04018    0.97958    1.000
    Si1805   Si       0.32732    0.03539    0.94187    1.000
    Si1806   Si       0.30876    0.15306    0.98129    1.000
    Si1807   Si       0.32888    0.24387    0.91072    1.000
    N1808    N        0.29292    0.22591    0.89089    1.000
    N1809    N        0.33807    0.13701    0.91059    1.000
    N1810    N        0.30135    0.17870    0.94652    1.000
    Si1811   Si       0.34260    0.17323    0.93304    1.000
    Si1812   Si       0.32963    0.31953    0.09441    1.000
    N1813    N        0.32915    0.35064    0.06586    1.000
    N1814    N        0.29499    0.29880    0.07579    1.000
    N1815    N        0.31295    0.29410    0.99998    1.000
    Si1816   Si       0.28923    0.37364    0.05282    1.000
    Si1817   Si       0.28802    0.30300    0.03353    1.000
    N1818    N        0.34358    0.37033    0.00548    1.000
    Si1819   Si       0.29978    0.49725    0.09620    1.000
    Si1820   Si       0.32433    0.42475    0.08818    1.000
    N1821    N        0.33431    0.47037    0.08847    1.000
    N1822    N        0.29259    0.41639    0.05999    1.000
    Si1823   Si       0.30197    0.50355    0.02259    1.000
    Si1824   Si       0.33381    0.32333    0.16635    1.000
    N1825    N        0.31684    0.33874    0.13058    1.000
    Si1826   Si       0.30645    0.28365    0.22316    1.000
    N1827    N        0.30379    0.31793    0.19546    1.000
    Si1828   Si       0.30557    0.25996    0.15203    1.000
    Si1829   Si       0.28937    0.36994    0.12538    1.000
    N1830    N        0.32819    0.45182    0.23538    1.000
    N1831    N        0.31247    0.39804    0.20409    1.000
    N1832    N        0.30334    0.41099    0.12646    1.000
    Si1833   Si       0.32090    0.44237    0.19292    1.000
    Si1834   Si       0.28882    0.38685    0.23905    1.000
    N1835    N        0.28114    0.45913    0.17876    1.000
    N1836    N        0.30813    0.36094    0.26897    1.000
    N1837    N        0.33138    0.36045    0.33634    1.000
    N1838    N        0.32550    0.29762    0.30359    1.000
    Si1839   Si       0.29442    0.32347    0.28378    1.000
    Si1840   Si       0.30475    0.27444    0.33840    1.000
    Si1841   Si       0.29148    0.34459    0.35086    1.000
    N1842    N        0.30418    0.30609    0.36723    1.000
    Si1843   Si       0.33902    0.37527    0.29671    1.000
    N1844    N        0.30968    0.43200    0.35461    1.000
    N1845    N        0.30056    0.46880    0.30468    1.000
    Si1846   Si       0.29353    0.46179    0.25941    1.000
    Si1847   Si       0.33754    0.44616    0.32509    1.000
    Si1848   Si       0.32695    0.28688    0.47456    1.000
    N1849    N        0.30702    0.28907    0.43684    1.000
    Si1850   Si       0.33307    0.29708    0.40110    1.000
    Si1851   Si       0.32211    0.40888    0.44744    1.000
    Si1852   Si       0.28634    0.41214    0.38629    1.000
    Si1853   Si       0.33966    0.47327    0.44373    1.000
    N1854    N        0.31025    0.39363    0.48783    1.000
    N1855    N        0.30801    0.44804    0.42709    1.000
    N1856    N        0.28935    0.38703    0.42462    1.000
    N1857    N        0.30676    0.32114    0.59572    1.000
    Si1858   Si       0.31251    0.35628    0.57135    1.000
    Si1859   Si       0.33290    0.28708    0.58961    1.000
    Si1860   Si       0.29556    0.35486    0.50004    1.000
    N1861    N        0.32835    0.32483    0.49902    1.000
    Si1862   Si       0.31194    0.43220    0.50810    1.000
    N1863    N        0.30262    0.39377    0.59219    1.000
    N1864    N        0.32313    0.45585    0.60461    1.000
    Si1865   Si       0.33052    0.42384    0.57700    1.000
    N1866    N        0.30115    0.48110    0.50517    1.000
    N1867    N        0.32362    0.35199    0.72319    1.000
    Si1868   Si       0.31251    0.30880    0.71433    1.000
    Si1869   Si       0.29451    0.38183    0.73722    1.000
    N1870    N        0.33737    0.48019    0.72359    1.000
    N1871    N        0.30419    0.42473    0.73979    1.000
    Si1872   Si       0.32443    0.47861    0.67953    1.000
    Si1873   Si       0.30867    0.32520    0.78304    1.000
    N1874    N        0.29940    0.30719    0.82261    1.000
    Si1875   Si       0.33027    0.28643    0.84637    1.000
    N1876    N        0.29033    0.36556    0.78019    1.000
    N1877    N        0.29904    0.29441    0.75320    1.000
    N1878    N        0.32161    0.40964    0.83299    1.000
    Si1879   Si       0.31663    0.50264    0.84008    1.000
    Si1880   Si       0.28488    0.39104    0.81448    1.000
    N1881    N        0.28401    0.49784    0.75448    1.000
    N1882    N        0.33377    0.28380    0.89081    1.000
    Si1883   Si       0.31115    0.35202    0.98391    1.000
    Si1884   Si       0.30056    0.29138    0.95731    1.000
    N1885    N        0.32383    0.32616    0.94764    1.000
    N1886    N        0.32526    0.25630    0.95267    1.000
    N1887    N        0.32461    0.41062    0.90776    1.000
    Si1888   Si       0.29952    0.40792    0.87271    1.000
    Si1889   Si       0.31078    0.42230    0.94794    1.000
    Si1890   Si       0.28880    0.47320    0.90280    1.000
    N1891    N        0.32445    0.48450    0.88257    1.000
    N1892    N        0.29097    0.38637    0.96221    1.000
    N1893    N        0.34399    0.43273    0.97395    1.000
    Si1894   Si       0.32567    0.58910    0.07230    1.000
    N1895    N        0.28567    0.51547    0.05999    1.000
    N1896    N        0.28466    0.57512    0.08173    1.000
    N1897    N        0.33467    0.62997    0.07269    1.000
    Si1898   Si       0.31638    0.70737    0.00785    1.000
    N1899    N        0.30184    0.73629    0.08451    1.000
    N1900    N        0.33186    0.74658    0.99968    1.000
    Si1901   Si       0.34024    0.71771    0.07598    1.000
    N1902    N        0.33842    0.69083    0.04145    1.000
    Si1903   Si       0.29926    0.56568    0.12157    1.000
    Si1904   Si       0.28660    0.62626    0.16355    1.000
    N1905    N        0.30376    0.52376    0.12980    1.000
    Si1906   Si       0.32996    0.51633    0.16358    1.000
    N1907    N        0.31122    0.53554    0.19835    1.000
    N1908    N        0.29394    0.62305    0.20609    1.000
    Si1909   Si       0.33366    0.61275    0.21967    1.000
    Si1910   Si       0.33768    0.54114    0.23402    1.000
    N1911    N        0.28554    0.71517    0.14397    1.000
    Si1912   Si       0.30825    0.72031    0.18161    1.000
    N1913    N        0.29920    0.69902    0.22071    1.000
    N1914    N        0.32296    0.63591    0.14085    1.000
    Si1915   Si       0.30066    0.75532    0.12911    1.000
    N1916    N        0.32647    0.58749    0.32301    1.000
    Si1917   Si       0.30438    0.58269    0.28469    1.000
    Si1918   Si       0.30812    0.55896    0.35364    1.000
    N1919    N        0.32760    0.52294    0.33895    1.000
    N1920    N        0.33011    0.58154    0.24996    1.000
    Si1921   Si       0.30680    0.51276    0.30235    1.000
    N1922    N        0.33993    0.51441    0.27064    1.000
    N1923    N        0.28270    0.54512    0.28703    1.000
    Si1924   Si       0.33027    0.68498    0.24857    1.000
    N1925    N        0.31762    0.67658    0.28970    1.000
    N1926    N        0.33013    0.71215    0.35331    1.000
    N1927    N        0.29312    0.74173    0.27432    1.000
    Si1928   Si       0.30581    0.53788    0.42555    1.000
    Si1929   Si       0.31036    0.60034    0.41259    1.000
    N1930    N        0.32576    0.56174    0.39461    1.000
    N1931    N        0.32718    0.51326    0.45314    1.000
    N1932    N        0.33581    0.62591    0.43888    1.000
    N1933    N        0.32094    0.62603    0.37459    1.000
    N1934    N        0.29218    0.57342    0.44579    1.000
    Si1935   Si       0.32355    0.63440    0.47858    1.000
    Si1936   Si       0.28393    0.64853    0.37674    1.000
    N1937    N        0.30811    0.67465    0.47983    1.000
    N1938    N        0.28940    0.68379    0.40189    1.000
    N1939    N        0.29719    0.74589    0.40664    1.000
    Si1940   Si       0.32391    0.71342    0.39642    1.000
    N1941    N        0.33344    0.53213    0.59201    1.000
    N1942    N        0.33106    0.55034    0.52106    1.000
    Si1943   Si       0.29318    0.53504    0.60962    1.000
    N1944    N        0.28904    0.61566    0.49632    1.000
    Si1945   Si       0.32877    0.51443    0.49728    1.000
    N1946    N        0.30332    0.65273    0.55111    1.000
    Si1947   Si       0.30668    0.69479    0.55869    1.000
    N1948    N        0.30205    0.70375    0.60246    1.000
    Si1949   Si       0.29546    0.74658    0.60833    1.000
    Si1950   Si       0.31769    0.58164    0.73761    1.000
    N1951    N        0.31145    0.54524    0.70744    1.000
    N1952    N        0.32058    0.61588    0.71062    1.000
    Si1953   Si       0.32640    0.55278    0.66829    1.000
    N1954    N        0.29253    0.56460    0.64285    1.000
    Si1955   Si       0.32122    0.51855    0.74100    1.000
    N1956    N        0.33899    0.51145    0.65655    1.000
    Si1957   Si       0.28397    0.70552    0.70153    1.000
    Si1958   Si       0.30694    0.67402    0.63412    1.000
    N1959    N        0.33361    0.63953    0.63555    1.000
    N1960    N        0.31454    0.69555    0.67123    1.000
    N1961    N        0.29285    0.74647    0.71883    1.000
    N1962    N        0.31017    0.54347    0.85212    1.000
    N1963    N        0.30269    0.60209    0.81965    1.000
    N1964    N        0.34144    0.55293    0.76064    1.000
    N1965    N        0.30178    0.66464    0.79568    1.000
    N1966    N        0.33030    0.70637    0.84471    1.000
    Si1967   Si       0.29871    0.73123    0.82692    1.000
    N1968    N        0.30284    0.72600    0.78340    1.000
    Si1969   Si       0.33877    0.67857    0.81234    1.000
    Si1970   Si       0.32804    0.74149    0.74961    1.000
    N1971    N        0.28449    0.59969    0.98543    1.000
    N1972    N        0.29523    0.53105    0.98790    1.000
    Si1973   Si       0.33159    0.55775    0.88611    1.000
    Si1974   Si       0.32410    0.53438    0.95556    1.000
    N1975    N        0.30624    0.55465    0.92081    1.000
    Si1976   Si       0.32713    0.59876    0.98005    1.000
    N1977    N        0.33187    0.62187    0.94410    1.000
    Si1978   Si       0.33091    0.69821    0.89037    1.000
    N1979    N        0.32028    0.68522    0.96991    1.000
    N1980    N        0.29319    0.68990    0.90651    1.000
    Si1981   Si       0.28385    0.69312    0.94749    1.000
    Si1982   Si       0.30088    0.84150    0.07635    1.000
    N1983    N        0.31286    0.87817    0.05357    1.000
    N1984    N        0.28338    0.86051    0.11300    1.000
    N1985    N        0.33598    0.81727    0.08194    1.000
    Si1986   Si       0.31334    0.88056    0.01015    1.000
    N1987    N        0.30746    0.92707    0.10485    1.000
    N1988    N        0.31534    0.97698    0.02084    1.000
    Si1989   Si       0.31203    0.97072    0.11013    1.000
    Si1990   Si       0.33557    0.90524    0.07962    1.000
    N1991    N        0.28402    0.91051    0.00290    1.000
    N1992    N        0.30086    0.76298    0.17981    1.000
    N1993    N        0.32145    0.80009    0.23590    1.000
    Si1994   Si       0.29873    0.87149    0.19646    1.000
    Si1995   Si       0.29163    0.79572    0.20678    1.000
    N1996    N        0.33819    0.86307    0.21756    1.000
    N1997    N        0.28326    0.83312    0.18143    1.000
    Si1998   Si       0.28731    0.97915    0.17294    1.000
    N1999    N        0.30802    0.90046    0.16619    1.000
    Si2000   Si       0.33663    0.93225    0.17138    1.000
    Si2001   Si       0.28801    0.93271    0.23052    1.000
    N2002    N        0.32493    0.97186    0.15256    1.000
    N2003    N        0.33110    0.93778    0.21716    1.000
    N2004    N        0.31108    0.85319    0.32558    1.000
    Si2005   Si       0.32033    0.77557    0.27277    1.000
    N2006    N        0.29443    0.79890    0.30151    1.000
    N2007    N        0.32906    0.78416    0.36068    1.000
    Si2008   Si       0.33064    0.81331    0.32552    1.000
    Si2009   Si       0.30558    0.93412    0.29687    1.000
    Si2010   Si       0.31142    0.99712    0.33038    1.000
    N2011    N        0.32911    0.95860    0.32273    1.000
    N2012    N        0.33101    0.90542    0.27535    1.000
    N2013    N        0.32479    0.00770    0.36834    1.000
    N2014    N        0.28340    0.95372    0.26748    1.000
    Si2015   Si       0.28887    0.77832    0.37703    1.000
    N2016    N        0.32161    0.86454    0.42603    1.000
    Si2017   Si       0.30850    0.86247    0.46862    1.000
    Si2018   Si       0.30381    0.78636    0.48651    1.000
    N2019    N        0.33646    0.76696    0.46798    1.000
    N2020    N        0.29109    0.93075    0.44019    1.000
    N2021    N        0.33122    0.99124    0.43457    1.000
    N2022    N        0.31753    0.91922    0.37752    1.000
    N2023    N        0.29336    0.96710    0.49148    1.000
    Si2024   Si       0.32376    0.90898    0.41923    1.000
    Si2025   Si       0.29523    0.97521    0.44835    1.000
    Si2026   Si       0.31411    0.82262    0.53641    1.000
    N2027    N        0.30667    0.77898    0.53022    1.000
    N2028    N        0.33176    0.76742    0.59456    1.000
    N2029    N        0.29273    0.85471    0.55347    1.000
    Si2030   Si       0.33558    0.80925    0.60593    1.000
    N2031    N        0.29766    0.82945    0.61292    1.000
    N2032    N        0.31441    0.82812    0.49388    1.000
    Si2033   Si       0.31016    0.89311    0.54062    1.000
    Si2034   Si       0.31032    0.00339    0.50831    1.000
    N2035    N        0.31479    0.91417    0.61941    1.000
    N2036    N        0.30959    0.89480    0.49736    1.000
    N2037    N        0.30012    0.81471    0.68638    1.000
    Si2038   Si       0.30526    0.77073    0.68354    1.000
    Si2039   Si       0.30806    0.85362    0.70188    1.000
    N2040    N        0.32142    0.84923    0.74460    1.000
    N2041    N        0.28569    0.76820    0.64533    1.000
    N2042    N        0.32276    0.99096    0.64085    1.000
    Si2043   Si       0.31910    0.90622    0.66180    1.000
    N2044    N        0.34388    0.93773    0.67815    1.000
    N2045    N        0.28518    0.89029    0.68511    1.000
    N2046    N        0.32504    0.92564    0.74153    1.000
    N2047    N        0.29665    0.98489    0.72147    1.000
    Si2048   Si       0.28662    0.94632    0.74730    1.000
    N2049    N        0.30232    0.77506    0.83341    1.000
    Si2050   Si       0.32765    0.81190    0.76962    1.000
    N2051    N        0.30944    0.87334    0.85837    1.000
    N2052    N        0.28625    0.79239    0.76967    1.000
    Si2053   Si       0.34177    0.86397    0.82843    1.000
    Si2054   Si       0.32036    0.88819    0.76535    1.000
    Si2055   Si       0.31250    0.98184    0.80991    1.000
    N2056    N        0.29776    0.00637    0.84188    1.000
    N2057    N        0.33490    0.00647    0.77964    1.000
    N2058    N        0.28970    0.84648    0.91869    1.000
    N2059    N        0.32197    0.78786    0.94107    1.000
    Si2060   Si       0.31803    0.83179    0.94916    1.000
    Si2061   Si       0.30279    0.76361    0.97225    1.000
    N2062    N        0.30041    0.84396    0.98848    1.000
    Si2063   Si       0.30484    0.88237    0.89932    1.000
    N2064    N        0.32366    0.96949    0.89221    1.000
    N2065    N        0.30570    0.95975    0.95642    1.000
    Si2066   Si       0.31492    0.93915    0.92002    1.000
    Si2067   Si       0.29250    0.99580    0.88281    1.000
    N2068    N        0.33481    0.90114    0.92422    1.000
    Si2069   Si       0.28906    0.95333    0.99481    1.000
    N2070    N        0.36966    0.06054    0.00939    1.000
    Si2071   Si       0.36697    0.02216    0.09932    1.000
    N2072    N        0.36172    0.06429    0.08925    1.000
    Si2073   Si       0.34702    0.07125    0.04710    1.000
    N2074    N        0.39435    0.12983    0.02309    1.000
    Si2075   Si       0.39284    0.09421    0.99669    1.000
    Si2076   Si       0.36680    0.13513    0.05671    1.000
    N2077    N        0.39069    0.13823    0.09169    1.000
    N2078    N        0.34830    0.23757    0.02580    1.000
    N2079    N        0.35582    0.17408    0.04085    1.000
    N2080    N        0.35565    0.21666    0.09408    1.000
    Si2081   Si       0.37938    0.16877    0.00609    1.000
    Si2082   Si       0.39154    0.24026    0.02164    1.000
    Si2083   Si       0.39635    0.22841    0.09078    1.000
    N2084    N        0.40179    0.25614    0.05894    1.000
    N2085    N        0.34106    0.01438    0.20712    1.000
    N2086    N        0.36245    0.09028    0.22412    1.000
    N2087    N        0.37438    0.09872    0.14773    1.000
    Si2088   Si       0.38527    0.09987    0.18967    1.000
    N2089    N        0.38121    0.02310    0.14267    1.000
    N2090    N        0.40085    0.25874    0.19599    1.000
    Si2091   Si       0.35769    0.25150    0.19100    1.000
    Si2092   Si       0.35392    0.17246    0.19960    1.000
    N2093    N        0.34631    0.18242    0.24014    1.000
    N2094    N        0.35357    0.21116    0.17796    1.000
    Si2095   Si       0.38354    0.14053    0.13637    1.000
    N2096    N        0.38733    0.14477    0.19221    1.000
    N2097    N        0.38188    0.07485    0.29001    1.000
    Si2098   Si       0.35605    0.05141    0.31627    1.000
    Si2099   Si       0.36767    0.10640    0.26387    1.000
    N2100    N        0.38910    0.02288    0.32775    1.000
    N2101    N        0.38548    0.12991    0.35063    1.000
    Si2102   Si       0.35054    0.11232    0.36605    1.000
    Si2103   Si       0.37905    0.18019    0.27063    1.000
    Si2104   Si       0.35758    0.21512    0.33432    1.000
    N2105    N        0.35253    0.18386    0.30564    1.000
    N2106    N        0.39252    0.24015    0.32994    1.000
    N2107    N        0.39190    0.14081    0.27752    1.000
    Si2108   Si       0.39524    0.04770    0.43209    1.000
    N2109    N        0.36873    0.10895    0.48265    1.000
    N2110    N        0.36649    0.04663    0.46275    1.000
    Si2111   Si       0.38421    0.11998    0.44095    1.000
    N2112    N        0.38197    0.02217    0.39978    1.000
    N2113    N        0.35197    0.12005    0.40969    1.000
    N2114    N        0.39852    0.22718    0.47896    1.000
    Si2115   Si       0.38003    0.24796    0.43947    1.000
    Si2116   Si       0.38235    0.18493    0.48094    1.000
    N2117    N        0.36637    0.19443    0.37222    1.000
    N2118    N        0.34699    0.22239    0.43527    1.000
    N2119    N        0.36471    0.02765    0.58791    1.000
    Si2120   Si       0.34598    0.03019    0.55049    1.000
    Si2121   Si       0.39386    0.05444    0.60775    1.000
    Si2122   Si       0.37306    0.06934    0.49937    1.000
    N2123    N        0.34514    0.06981    0.53426    1.000
    Si2124   Si       0.40281    0.13211    0.58821    1.000
    N2125    N        0.36507    0.15036    0.58067    1.000
    N2126    N        0.38390    0.18471    0.52533    1.000
    N2127    N        0.39434    0.23081    0.59339    1.000
    Si2128   Si       0.34846    0.16786    0.54314    1.000
    Si2129   Si       0.40110    0.21351    0.55337    1.000
    N2130    N        0.37938    0.07336    0.64666    1.000
    N2131    N        0.38937    0.09209    0.71533    1.000
    Si2132   Si       0.36557    0.06803    0.74105    1.000
    Si2133   Si       0.34183    0.09664    0.64007    1.000
    N2134    N        0.34641    0.19811    0.62876    1.000
    Si2135   Si       0.38033    0.17167    0.65074    1.000
    N2136    N        0.35116    0.13796    0.64398    1.000
    N2137    N        0.36027    0.15130    0.74463    1.000
    N2138    N        0.39457    0.20635    0.73482    1.000
    N2139    N        0.39966    0.15678    0.68642    1.000
    Si2140   Si       0.36958    0.23689    0.62978    1.000
    Si2141   Si       0.39540    0.13665    0.72474    1.000
    Si2142   Si       0.35241    0.19376    0.73475    1.000
    N2143    N        0.35425    0.24833    0.67019    1.000
    N2144    N        0.36364    0.04933    0.82231    1.000
    Si2145   Si       0.37397    0.01889    0.79193    1.000
    N2146    N        0.38953    0.03329    0.75398    1.000
    Si2147   Si       0.39816    0.03244    0.84757    1.000
    N2148    N        0.34825    0.09117    0.77276    1.000
    N2149    N        0.38579    0.24428    0.79149    1.000
    N2150    N        0.35872    0.18287    0.80861    1.000
    Si2151   Si       0.39613    0.17433    0.82717    1.000
    N2152    N        0.38084    0.17088    0.86890    1.000
    Si2153   Si       0.34821    0.22401    0.80045    1.000
    N2154    N        0.39679    0.10877    0.89062    1.000
    Si2155   Si       0.38736    0.07980    0.92263    1.000
    N2156    N        0.36459    0.01301    0.95343    1.000
    Si2157   Si       0.38328    0.02029    0.99258    1.000
    N2158    N        0.39726    0.10573    0.95666    1.000
    N2159    N        0.34416    0.07139    0.92850    1.000
    Si2160   Si       0.39889    0.20076    0.89765    1.000
    N2161    N        0.35182    0.16219    0.97460    1.000
    Si2162   Si       0.36155    0.13196    0.87437    1.000
    N2163    N        0.35400    0.20979    0.91386    1.000
    N2164    N        0.40026    0.20558    0.99794    1.000
    N2165    N        0.36886    0.30118    0.09693    1.000
    Si2166   Si       0.36162    0.37148    0.04685    1.000
    N2167    N        0.39544    0.34251    0.04887    1.000
    N2168    N        0.39666    0.46695    0.05069    1.000
    N2169    N        0.35973    0.40909    0.06844    1.000
    Si2170   Si       0.37611    0.48304    0.08488    1.000
    N2171    N        0.34437    0.49866    0.01103    1.000
    Si2172   Si       0.39690    0.42340    0.05294    1.000
    N2173    N        0.39233    0.46191    0.11905    1.000
    N2174    N        0.39785    0.39840    0.01672    1.000
    Si2175   Si       0.38451    0.28542    0.13458    1.000
    N2176    N        0.36527    0.35011    0.17907    1.000
    N2177    N        0.35038    0.27968    0.22673    1.000
    Si2178   Si       0.39969    0.28268    0.23512    1.000
    N2179    N        0.34645    0.27979    0.15858    1.000
    Si2180   Si       0.38211    0.45934    0.16197    1.000
    Si2181   Si       0.35507    0.38807    0.19868    1.000
    N2182    N        0.37423    0.39441    0.23695    1.000
    N2183    N        0.34279    0.47592    0.17069    1.000
    N2184    N        0.36646    0.42030    0.17408    1.000
    N2185    N        0.37253    0.34895    0.28727    1.000
    Si2186   Si       0.36757    0.30894    0.30101    1.000
    N2187    N        0.37819    0.30906    0.34328    1.000
    Si2188   Si       0.36426    0.34483    0.36070    1.000
    Si2189   Si       0.39322    0.27194    0.35899    1.000
    N2190    N        0.39220    0.28134    0.27870    1.000
    Si2191   Si       0.39500    0.35805    0.25239    1.000
    N2192    N        0.37593    0.46903    0.33050    1.000
    Si2193   Si       0.36218    0.43253    0.25468    1.000
    N2194    N        0.39216    0.46494    0.25928    1.000
    N2195    N        0.34746    0.41731    0.29443    1.000
    Si2196   Si       0.38538    0.51050    0.26689    1.000
    N2197    N        0.39638    0.37247    0.37397    1.000
    N2198    N        0.36133    0.26519    0.39373    1.000
    N2199    N        0.37123    0.28493    0.46185    1.000
    Si2200   Si       0.38317    0.36630    0.41540    1.000
    N2201    N        0.35394    0.33481    0.40257    1.000
    N2202    N        0.37864    0.46733    0.42604    1.000
    N2203    N        0.34776    0.44196    0.47488    1.000
    Si2204   Si       0.38709    0.42940    0.44784    1.000
    N2205    N        0.36010    0.39553    0.43453    1.000
    Si2206   Si       0.35970    0.32448    0.53108    1.000
    N2207    N        0.35819    0.28637    0.55228    1.000
    N2208    N        0.35297    0.35633    0.56047    1.000
    Si2209   Si       0.38557    0.37339    0.58581    1.000
    Si2210   Si       0.39447    0.27250    0.57323    1.000
    N2211    N        0.39729    0.32670    0.51234    1.000
    N2212    N        0.36546    0.28217    0.61683    1.000
    Si2213   Si       0.37134    0.45356    0.50928    1.000
    N2214    N        0.36766    0.41113    0.59538    1.000
    N2215    N        0.36459    0.49593    0.51037    1.000
    N2216    N        0.38424    0.47855    0.61361    1.000
    N2217    N        0.34350    0.43553    0.53761    1.000
    N2218    N        0.39162    0.35789    0.62626    1.000
    Si2219   Si       0.39390    0.31350    0.62594    1.000
    Si2220   Si       0.38267    0.27598    0.68806    1.000
    Si2221   Si       0.36139    0.33588    0.73511    1.000
    N2222    N        0.35553    0.30218    0.70933    1.000
    Si2223   Si       0.38688    0.44305    0.68732    1.000
    Si2224   Si       0.34637    0.43951    0.73981    1.000
    N2225    N        0.34706    0.44661    0.66610    1.000
    N2226    N        0.37822    0.41649    0.72067    1.000
    Si2227   Si       0.36286    0.44266    0.62482    1.000
    N2228    N        0.36774    0.30247    0.83839    1.000
    N2229    N        0.37789    0.37039    0.81914    1.000
    Si2230   Si       0.37650    0.34391    0.85234    1.000
    Si2231   Si       0.39066    0.34305    0.78896    1.000
    N2232    N        0.35106    0.32491    0.77561    1.000
    Si2233   Si       0.39735    0.28000    0.81356    1.000
    N2234    N        0.39817    0.35488    0.74881    1.000
    N2235    N        0.35880    0.43972    0.78391    1.000
    Si2236   Si       0.38368    0.46834    0.80550    1.000
    Si2237   Si       0.36182    0.41376    0.81904    1.000
    N2238    N        0.39239    0.44059    0.83684    1.000
    N2239    N        0.35760    0.50011    0.82440    1.000
    N2240    N        0.35432    0.35159    0.88829    1.000
    N2241    N        0.39486    0.30990    0.92931    1.000
    Si2242   Si       0.35248    0.31516    0.91404    1.000
    N2243    N        0.37964    0.37890    0.94736    1.000
    Si2244   Si       0.34475    0.26493    0.99200    1.000
    N2245    N        0.38821    0.27540    0.99397    1.000
    N2246    N        0.34515    0.49817    0.94341    1.000
    Si2247   Si       0.36191    0.38924    0.90905    1.000
    N2248    N        0.39635    0.47287    0.90405    1.000
    Si2249   Si       0.35977    0.49531    0.90255    1.000
    Si2250   Si       0.36902    0.39746    0.98475    1.000
    Si2251   Si       0.35620    0.47301    0.97737    1.000
    Si2252   Si       0.36217    0.53979    0.01466    1.000
    N2253    N        0.38859    0.52352    0.08761    1.000
    Si2254   Si       0.38063    0.55213    0.11990    1.000
    N2255    N        0.34339    0.57466    0.11517    1.000
    N2256    N        0.34378    0.63187    0.00487    1.000
    N2257    N        0.34199    0.56388    0.04343    1.000
    N2258    N        0.36422    0.74968    0.06375    1.000
    Si2259   Si       0.35585    0.65120    0.04106    1.000
    N2260    N        0.35473    0.69478    0.10863    1.000
    Si2261   Si       0.37015    0.74812    0.02001    1.000
    Si2262   Si       0.34653    0.65222    0.10819    1.000
    N2263    N        0.39569    0.71313    0.01302    1.000
    N2264    N        0.39932    0.64876    0.04576    1.000
    N2265    N        0.38170    0.63021    0.12119    1.000
    N2266    N        0.35803    0.59784    0.18836    1.000
    Si2267   Si       0.35749    0.60590    0.14785    1.000
    N2268    N        0.37004    0.53262    0.15722    1.000
    N2269    N        0.37851    0.53007    0.22766    1.000
    Si2270   Si       0.38217    0.71148    0.20469    1.000
    N2271    N        0.35185    0.64745    0.23987    1.000
    N2272    N        0.35025    0.71324    0.17413    1.000
    Si2273   Si       0.36884    0.72420    0.13749    1.000
    Si2274   Si       0.39431    0.65285    0.24226    1.000
    N2275    N        0.38767    0.58841    0.36096    1.000
    Si2276   Si       0.35249    0.61269    0.34808    1.000
    N2277    N        0.39265    0.53531    0.30504    1.000
    Si2278   Si       0.37063    0.51193    0.33620    1.000
    N2279    N        0.36816    0.64991    0.33045    1.000
    N2280    N        0.37648    0.71612    0.31248    1.000
    Si2281   Si       0.35508    0.74645    0.33581    1.000
    Si2282   Si       0.34530    0.68676    0.32247    1.000
    Si2283   Si       0.39681    0.71245    0.27558    1.000
    N2284    N        0.38817    0.75941    0.36400    1.000
    N2285    N        0.36373    0.71339    0.24581    1.000
    Si2286   Si       0.36891    0.55782    0.39178    1.000
    N2287    N        0.38275    0.52077    0.37666    1.000
    N2288    N        0.39382    0.57191    0.42352    1.000
    Si2289   Si       0.36993    0.65231    0.42572    1.000
    N2290    N        0.35771    0.69462    0.41625    1.000
    N2291    N        0.39836    0.75036    0.44882    1.000
    N2292    N        0.39343    0.66920    0.45853    1.000
    N2293    N        0.39117    0.54372    0.55673    1.000
    N2294    N        0.35213    0.60118    0.57195    1.000
    Si2295   Si       0.34718    0.55967    0.56016    1.000
    Si2296   Si       0.36462    0.62959    0.60465    1.000
    Si2297   Si       0.34346    0.63643    0.54599    1.000
    N2298    N        0.35672    0.63440    0.50640    1.000
    Si2299   Si       0.39959    0.51749    0.52198    1.000
    N2300    N        0.34244    0.71754    0.54745    1.000
    N2301    N        0.36401    0.66380    0.57410    1.000
    Si2302   Si       0.38123    0.69900    0.55469    1.000
    Si2303   Si       0.39593    0.65095    0.49753    1.000
    Si2304   Si       0.36067    0.51453    0.62002    1.000
    N2305    N        0.39235    0.54388    0.62311    1.000
    N2306    N        0.35869    0.57958    0.66859    1.000
    Si2307   Si       0.39763    0.56423    0.66047    1.000
    Si2308   Si       0.34550    0.62183    0.67630    1.000
    N2309    N        0.37935    0.64304    0.69226    1.000
    N2310    N        0.35444    0.71203    0.72540    1.000
    Si2311   Si       0.35414    0.71168    0.68093    1.000
    N2312    N        0.34588    0.75634    0.67687    1.000
    N2313    N        0.38698    0.69735    0.65338    1.000
    N2314    N        0.37017    0.57194    0.82100    1.000
    Si2315   Si       0.37774    0.57089    0.77697    1.000
    Si2316   Si       0.37937    0.53421    0.84200    1.000
    N2317    N        0.37899    0.61323    0.76402    1.000
    Si2318   Si       0.34470    0.60427    0.83365    1.000
    Si2319   Si       0.39083    0.64732    0.78760    1.000
    N2320    N        0.36487    0.64295    0.82492    1.000
    N2321    N        0.37038    0.69051    0.78615    1.000
    Si2322   Si       0.36530    0.73177    0.85297    1.000
    Si2323   Si       0.38803    0.66195    0.85970    1.000
    N2324    N        0.40012    0.70550    0.85363    1.000
    Si2325   Si       0.38899    0.70130    0.74795    1.000
    N2326    N        0.39285    0.60178    0.92234    1.000
    N2327    N        0.37116    0.53796    0.88673    1.000
    Si2328   Si       0.35781    0.62368    0.90830    1.000
    N2329    N        0.35112    0.56070    0.97754    1.000
    N2330    N        0.34278    0.59973    0.87634    1.000
    Si2331   Si       0.34902    0.65504    0.96662    1.000
    N2332    N        0.39264    0.66029    0.96009    1.000
    N2333    N        0.36093    0.66483    0.89355    1.000
    N2334    N        0.35216    0.73586    0.89458    1.000
    Si2335   Si       0.35761    0.78290    0.09282    1.000
    Si2336   Si       0.37387    0.84174    0.07911    1.000
    N2337    N        0.38648    0.78605    0.01128    1.000
    N2338    N        0.39007    0.85345    0.03998    1.000
    N2339    N        0.36485    0.87909    0.10094    1.000
    N2340    N        0.39548    0.80503    0.09373    1.000
    N2341    N        0.38439    0.99276    0.02805    1.000
    Si2342   Si       0.38316    0.89768    0.02724    1.000
    N2343    N        0.35925    0.92870    0.05042    1.000
    Si2344   Si       0.35182    0.97263    0.04615    1.000
    N2345    N        0.34720    0.98543    0.08779    1.000
    Si2346   Si       0.35412    0.82902    0.24029    1.000
    N2347    N        0.34575    0.76102    0.12685    1.000
    N2348    N        0.39030    0.80342    0.24487    1.000
    N2349    N        0.38459    0.97480    0.19218    1.000
    N2350    N        0.39107    0.90463    0.22752    1.000
    Si2351   Si       0.34930    0.90161    0.23591    1.000
    Si2352   Si       0.35719    0.97473    0.22438    1.000
    Si2353   Si       0.39352    0.89447    0.12704    1.000
    N2354    N        0.37421    0.91917    0.15821    1.000
    Si2355   Si       0.35557    0.00009    0.16857    1.000
    Si2356   Si       0.38430    0.80404    0.29038    1.000
    N2357    N        0.37058    0.82860    0.34670    1.000
    N2358    N        0.35295    0.77676    0.30249    1.000
    Si2359   Si       0.39116    0.86541    0.35280    1.000
    N2360    N        0.35710    0.83799    0.28389    1.000
    Si2361   Si       0.34187    0.87405    0.30377    1.000
    Si2362   Si       0.34993    0.93224    0.35187    1.000
    N2363    N        0.36949    0.98455    0.26243    1.000
    N2364    N        0.36545    0.89644    0.33387    1.000
    Si2365   Si       0.39459    0.99797    0.29368    1.000
    N2366    N        0.39864    0.80281    0.48150    1.000
    Si2367   Si       0.36959    0.79865    0.37529    1.000
    N2368    N        0.38338    0.87605    0.39510    1.000
    Si2369   Si       0.36293    0.85154    0.42482    1.000
    N2370    N        0.37554    0.86522    0.46418    1.000
    N2371    N        0.36641    0.80900    0.41728    1.000
    Si2372   Si       0.37154    0.78400    0.45121    1.000
    Si2373   Si       0.35423    0.98889    0.39743    1.000
    N2374    N        0.37733    0.95476    0.37686    1.000
    Si2375   Si       0.39602    0.91726    0.40142    1.000
    Si2376   Si       0.38442    0.90727    0.46303    1.000
    N2377    N        0.35973    0.92629    0.43502    1.000
    N2378    N        0.38220    0.77605    0.54597    1.000
    Si2379   Si       0.38828    0.81724    0.55599    1.000
    N2380    N        0.34735    0.82332    0.56755    1.000
    Si2381   Si       0.34210    0.76082    0.55198    1.000
    N2382    N        0.37840    0.88533    0.61772    1.000
    N2383    N        0.40153    0.85275    0.53191    1.000
    Si2384   Si       0.39198    0.89549    0.53987    1.000
    Si2385   Si       0.35416    0.91408    0.59844    1.000
    N2386    N        0.36821    0.95582    0.59398    1.000
    Si2387   Si       0.35844    0.99222    0.61415    1.000
    N2388    N        0.35048    0.90090    0.55558    1.000
    N2389    N        0.35233    0.00067    0.51479    1.000
    Si2390   Si       0.39358    0.00057    0.50650    1.000
    N2391    N        0.39953    0.91660    0.50365    1.000
    Si2392   Si       0.37834    0.78154    0.66466    1.000
    N2393    N        0.36308    0.81440    0.63903    1.000
    Si2394   Si       0.37064    0.85473    0.65112    1.000
    Si2395   Si       0.39642    0.77868    0.74294    1.000
    N2396    N        0.34004    0.86913    0.67547    1.000
    N2397    N        0.38483    0.99282    0.64886    1.000
    N2398    N        0.36467    0.98621    0.71369    1.000
    Si2399   Si       0.36236    0.93953    0.72233    1.000
    Si2400   Si       0.35148    0.97995    0.67244    1.000
    N2401    N        0.40125    0.92120    0.71030    1.000
    N2402    N        0.37801    0.86641    0.85642    1.000
    N2403    N        0.37395    0.76401    0.82684    1.000
    N2404    N        0.35193    0.77790    0.75215    1.000
    Si2405   Si       0.34343    0.79280    0.83795    1.000
    N2406    N        0.33920    0.82516    0.80855    1.000
    Si2407   Si       0.36994    0.92858    0.80283    1.000
    N2408    N        0.38450    0.94678    0.76549    1.000
    Si2409   Si       0.35743    0.96983    0.86574    1.000
    N2410    N        0.34796    0.95820    0.82548    1.000
    Si2411   Si       0.39959    0.90353    0.85963    1.000
    N2412    N        0.34759    0.89180    0.79799    1.000
    Si2413   Si       0.39446    0.83049    0.87475    1.000
    N2414    N        0.35710    0.80348    0.87866    1.000
    N2415    N        0.39145    0.77900    0.93391    1.000
    Si2416   Si       0.35292    0.77660    0.91198    1.000
    N2417    N        0.35882    0.84356    0.94847    1.000
    Si2418   Si       0.39544    0.82020    0.94794    1.000
    N2419    N        0.37923    0.00703    0.87624    1.000
    Si2420   Si       0.36462    0.88786    0.95196    1.000
    N2421    N        0.35326    0.89326    0.99507    1.000
    N2422    N        0.40006    0.91203    0.94751    1.000
    N2423    N        0.38101    0.93606    0.87849    1.000
    Si2424   Si       0.39022    0.00743    0.91861    1.000
    N2425    N        0.43273    0.08328    0.01175    1.000
    Si2426   Si       0.43640    0.12296    0.03211    1.000
    N2427    N        0.40988    0.02225    0.08606    1.000
    Si2428   Si       0.45203    0.04607    0.00209    1.000
    N2429    N        0.46300    0.02095    0.03799    1.000
    N2430    N        0.45555    0.13473    0.06786    1.000
    N2431    N        0.42605    0.19652    0.08530    1.000
    Si2432   Si       0.43016    0.15432    0.09769    1.000
    Si2433   Si       0.42381    0.02105    0.12587    1.000
    N2434    N        0.42443    0.08183    0.19345    1.000
    Si2435   Si       0.45380    0.04952    0.18239    1.000
    Si2436   Si       0.45513    0.09999    0.21856    1.000
    N2437    N        0.45790    0.04523    0.14008    1.000
    N2438    N        0.44262    0.01120    0.19991    1.000
    N2439    N        0.42486    0.19990    0.19721    1.000
    Si2440   Si       0.42969    0.15811    0.18650    1.000
    N2441    N        0.42465    0.15407    0.14216    1.000
    Si2442   Si       0.43500    0.22239    0.23342    1.000
    Si2443   Si       0.42081    0.23219    0.16812    1.000
    N2444    N        0.40798    0.24929    0.12774    1.000
    N2445    N        0.44023    0.09795    0.31819    1.000
    N2446    N        0.42616    0.02171    0.27404    1.000
    Si2447   Si       0.42425    0.06234    0.28731    1.000
    N2448    N        0.44846    0.08376    0.25873    1.000
    Si2449   Si       0.41053    0.02368    0.36475    1.000
    Si2450   Si       0.41477    0.13263    0.31708    1.000
    N2451    N        0.43559    0.05755    0.37449    1.000
    N2452    N        0.42705    0.17176    0.33313    1.000
    Si2453   Si       0.41560    0.24745    0.29319    1.000
    N2454    N        0.40675    0.21409    0.26608    1.000
    N2455    N        0.45776    0.24228    0.30632    1.000
    Si2456   Si       0.39915    0.16704    0.36770    1.000
    N2457    N        0.43389    0.03328    0.44174    1.000
    N2458    N        0.41157    0.08841    0.42765    1.000
    Si2459   Si       0.45163    0.06452    0.41405    1.000
    N2460    N        0.41793    0.23919    0.41770    1.000
    Si2461   Si       0.44305    0.15776    0.43545    1.000
    N2462    N        0.43318    0.16136    0.39229    1.000
    Si2463   Si       0.42872    0.25051    0.49781    1.000
    N2464    N        0.40418    0.15716    0.45303    1.000
    Si2465   Si       0.44576    0.04678    0.51831    1.000
    Si2466   Si       0.44653    0.09011    0.56394    1.000
    N2467    N        0.45187    0.04431    0.55986    1.000
    N2468    N        0.40224    0.04220    0.51447    1.000
    N2469    N        0.45244    0.08985    0.51765    1.000
    N2470    N        0.40348    0.08894    0.58333    1.000
    N2471    N        0.43957    0.13426    0.56267    1.000
    N2472    N        0.44028    0.19774    0.56966    1.000
    Si2473   Si       0.42859    0.20139    0.61322    1.000
    N2474    N        0.41629    0.25220    0.53991    1.000
    Si2475   Si       0.40212    0.00741    0.72082    1.000
    N2476    N        0.43155    0.03815    0.62323    1.000
    N2477    N        0.41627    0.03200    0.68824    1.000
    N2478    N        0.43817    0.10388    0.67597    1.000
    Si2479   Si       0.40698    0.07309    0.68165    1.000
    N2480    N        0.41375    0.15716    0.62279    1.000
    N2481    N        0.40347    0.21097    0.65180    1.000
    N2482    N        0.45260    0.18535    0.69117    1.000
    Si2483   Si       0.41403    0.20922    0.69382    1.000
    N2484    N        0.41723    0.25309    0.69986    1.000
    Si2485   Si       0.43739    0.14800    0.66407    1.000
    N2486    N        0.42776    0.06276    0.84500    1.000
    Si2487   Si       0.42258    0.10452    0.85538    1.000
    N2488    N        0.40829    0.00382    0.81339    1.000
    N2489    N        0.41566    0.13259    0.82048    1.000
    Si2490   Si       0.44179    0.15199    0.79103    1.000
    Si2491   Si       0.41466    0.22057    0.76934    1.000
    N2492    N        0.43020    0.19424    0.80467    1.000
    N2493    N        0.45047    0.24327    0.76091    1.000
    Si2494   Si       0.44745    0.22584    0.83361    1.000
    N2495    N        0.43755    0.20241    0.86901    1.000
    N2496    N        0.43227    0.13970    0.75028    1.000
    N2497    N        0.41504    0.04539    0.92203    1.000
    N2498    N        0.42684    0.01792    0.98190    1.000
    Si2499   Si       0.45563    0.04389    0.93445    1.000
    N2500    N        0.45713    0.12060    0.93659    1.000
    Si2501   Si       0.41589    0.13122    0.92422    1.000
    N2502    N        0.45236    0.13086    0.87472    1.000
    N2503    N        0.41145    0.23710    0.92211    1.000
    Si2504   Si       0.41567    0.20977    0.95597    1.000
    N2505    N        0.40957    0.17319    0.93089    1.000
    N2506    N        0.43953    0.30269    0.09203    1.000
    Si2507   Si       0.42313    0.36250    0.02239    1.000
    N2508    N        0.44450    0.29849    0.02898    1.000
    N2509    N        0.45636    0.36408    0.11830    1.000
    Si2510   Si       0.40291    0.30326    0.06746    1.000
    Si2511   Si       0.45078    0.26123    0.11910    1.000
    Si2512   Si       0.45951    0.38682    0.07912    1.000
    Si2513   Si       0.41493    0.48719    0.01485    1.000
    Si2514   Si       0.43257    0.44576    0.11153    1.000
    N2515    N        0.42889    0.41669    0.08083    1.000
    N2516    N        0.45870    0.48067    0.02041    1.000
    N2517    N        0.44212    0.36543    0.18348    1.000
    Si2518   Si       0.45328    0.32263    0.13019    1.000
    N2519    N        0.41515    0.31123    0.15116    1.000
    Si2520   Si       0.40783    0.33902    0.18436    1.000
    N2521    N        0.44272    0.26572    0.24244    1.000
    N2522    N        0.40537    0.32427    0.22495    1.000
    N2523    N        0.44166    0.43190    0.15269    1.000
    Si2524   Si       0.45850    0.39141    0.15239    1.000
    N2525    N        0.41062    0.48727    0.18136    1.000
    Si2526   Si       0.45002    0.47070    0.17469    1.000
    N2527    N        0.43339    0.37508    0.25901    1.000
    N2528    N        0.43519    0.27842    0.36455    1.000
    N2529    N        0.45929    0.34557    0.35333    1.000
    Si2530   Si       0.43673    0.38302    0.35690    1.000
    Si2531   Si       0.41921    0.45507    0.33468    1.000
    Si2532   Si       0.44738    0.40259    0.28934    1.000
    N2533    N        0.42619    0.41317    0.32628    1.000
    N2534    N        0.44954    0.48571    0.32251    1.000
    Si2535   Si       0.43407    0.46781    0.24792    1.000
    Si2536   Si       0.40394    0.31268    0.47079    1.000
    N2537    N        0.44753    0.36575    0.49186    1.000
    N2538    N        0.41214    0.34595    0.44110    1.000
    N2539    N        0.43792    0.28708    0.47508    1.000
    Si2540   Si       0.44133    0.37586    0.45073    1.000
    N2541    N        0.42428    0.45969    0.37772    1.000
    Si2542   Si       0.44637    0.43445    0.40477    1.000
    N2543    N        0.40891    0.44389    0.48776    1.000
    N2544    N        0.42247    0.41111    0.43154    1.000
    Si2545   Si       0.40257    0.49235    0.40177    1.000
    N2546    N        0.41824    0.30557    0.59088    1.000
    Si2547   Si       0.42821    0.35147    0.52948    1.000
    N2548    N        0.45117    0.38010    0.62126    1.000
    N2549    N        0.42230    0.38055    0.56146    1.000
    N2550    N        0.42835    0.48449    0.53339    1.000
    N2551    N        0.44573    0.44866    0.59318    1.000
    Si2552   Si       0.45057    0.40538    0.58384    1.000
    Si2553   Si       0.44514    0.46508    0.49682    1.000
    Si2554   Si       0.45609    0.48271    0.56518    1.000
    N2555    N        0.44855    0.30817    0.72950    1.000
    Si2556   Si       0.44125    0.32981    0.69163    1.000
    N2557    N        0.42753    0.37154    0.69013    1.000
    N2558    N        0.40867    0.30744    0.66643    1.000
    Si2559   Si       0.45228    0.26431    0.72196    1.000
    Si2560   Si       0.41695    0.38581    0.64874    1.000
    N2561    N        0.41418    0.46932    0.71127    1.000
    N2562    N        0.44665    0.48995    0.65300    1.000
    N2563    N        0.40758    0.42913    0.65054    1.000
    Si2564   Si       0.42278    0.46513    0.62578    1.000
    Si2565   Si       0.41301    0.38957    0.72918    1.000
    Si2566   Si       0.43595    0.50296    0.69235    1.000
    N2567    N        0.42158    0.31085    0.79396    1.000
    Si2568   Si       0.43995    0.30176    0.85666    1.000
    N2569    N        0.41968    0.33846    0.86286    1.000
    N2570    N        0.42661    0.26303    0.84098    1.000
    Si2571   Si       0.45771    0.32001    0.77140    1.000
    N2572    N        0.41803    0.47733    0.78026    1.000
    N2573    N        0.44168    0.41420    0.75166    1.000
    Si2574   Si       0.43849    0.45722    0.74556    1.000
    N2575    N        0.44323    0.36240    0.92221    1.000
    Si2576   Si       0.42607    0.27752    0.92466    1.000
    Si2577   Si       0.43228    0.37529    0.88243    1.000
    N2578    N        0.44846    0.27769    0.96296    1.000
    N2579    N        0.42175    0.34119    0.98435    1.000
    Si2580   Si       0.40978    0.34670    0.94481    1.000
    Si2581   Si       0.42435    0.29775    0.99190    1.000
    N2582    N        0.45574    0.29266    0.89728    1.000
    N2583    N        0.45312    0.44564    0.87889    1.000
    Si2584   Si       0.40868    0.44292    0.87736    1.000
    Si2585   Si       0.41530    0.49279    0.94045    1.000
    N2586    N        0.45867    0.48909    0.94121    1.000
    N2587    N        0.40003    0.47508    0.97701    1.000
    N2588    N        0.39873    0.40215    0.89029    1.000
    Si2589   Si       0.41655    0.54417    0.05769    1.000
    Si2590   Si       0.42157    0.61267    0.03011    1.000
    Si2591   Si       0.41481    0.60975    0.10335    1.000
    N2592    N        0.41166    0.58711    0.06415    1.000
    N2593    N        0.40374    0.53072    0.01821    1.000
    N2594    N        0.45697    0.53232    0.06944    1.000
    N2595    N        0.45131    0.63285    0.09774    1.000
    Si2596   Si       0.41976    0.68644    0.04077    1.000
    Si2597   Si       0.44516    0.72191    0.11120    1.000
    N2598    N        0.43335    0.70601    0.07393    1.000
    N2599    N        0.44373    0.67319    0.00566    1.000
    N2600    N        0.41620    0.57475    0.13042    1.000
    N2601    N        0.43270    0.55179    0.19491    1.000
    Si2602   Si       0.44338    0.58007    0.16329    1.000
    Si2603   Si       0.45255    0.54139    0.23269    1.000
    N2604    N        0.44557    0.62553    0.16687    1.000
    N2605    N        0.42582    0.62184    0.23520    1.000
    Si2606   Si       0.39784    0.52691    0.18937    1.000
    N2607    N        0.40361    0.67450    0.20565    1.000
    N2608    N        0.40548    0.74726    0.20271    1.000
    N2609    N        0.41095    0.73549    0.13452    1.000
    Si2610   Si       0.43906    0.64830    0.20274    1.000
    Si2611   Si       0.42758    0.75850    0.16737    1.000
    N2612    N        0.41752    0.61058    0.30254    1.000
    Si2613   Si       0.44774    0.60786    0.26951    1.000
    N2614    N        0.44687    0.55769    0.33045    1.000
    Si2615   Si       0.45288    0.52667    0.29940    1.000
    Si2616   Si       0.40721    0.57380    0.32306    1.000
    N2617    N        0.46321    0.56725    0.26657    1.000
    N2618    N        0.43470    0.51025    0.25856    1.000
    N2619    N        0.43779    0.66882    0.34388    1.000
    N2620    N        0.44951    0.73522    0.33737    1.000
    N2621    N        0.42336    0.74577    0.26901    1.000
    Si2622   Si       0.41008    0.65054    0.31533    1.000
    N2623    N        0.40788    0.67183    0.27875    1.000
    Si2624   Si       0.41553    0.59899    0.39324    1.000
    Si2625   Si       0.42152    0.54887    0.45029    1.000
    N2626    N        0.40727    0.54516    0.49033    1.000
    N2627    N        0.45677    0.59003    0.39041    1.000
    N2628    N        0.43123    0.51455    0.42684    1.000
    N2629    N        0.45657    0.57180    0.46056    1.000
    N2630    N        0.42440    0.70809    0.39922    1.000
    N2631    N        0.40627    0.64053    0.40109    1.000
    Si2632   Si       0.40205    0.70819    0.43769    1.000
    Si2633   Si       0.42939    0.74263    0.37447    1.000
    N2634    N        0.44517    0.70879    0.46213    1.000
    Si2635   Si       0.43648    0.66806    0.38815    1.000
    Si2636   Si       0.42043    0.54610    0.58856    1.000
    N2637    N        0.43976    0.58540    0.59052    1.000
    N2638    N        0.42665    0.62190    0.50546    1.000
    N2639    N        0.45172    0.51637    0.59222    1.000
    Si2640   Si       0.43452    0.57888    0.50107    1.000
    N2641    N        0.43762    0.74974    0.51536    1.000
    Si2642   Si       0.43769    0.70743    0.50573    1.000
    N2643    N        0.40167    0.68661    0.51964    1.000
    N2644    N        0.40662    0.72423    0.57998    1.000
    Si2645   Si       0.43986    0.61092    0.62344    1.000
    N2646    N        0.40656    0.53508    0.69497    1.000
    Si2647   Si       0.42757    0.55746    0.72594    1.000
    N2648    N        0.43809    0.58242    0.65942    1.000
    N2649    N        0.43144    0.60006    0.72127    1.000
    N2650    N        0.40171    0.63164    0.62648    1.000
    Si2651   Si       0.39667    0.62672    0.72679    1.000
    N2652    N        0.45350    0.70996    0.62859    1.000
    Si2653   Si       0.40512    0.65892    0.66084    1.000
    N2654    N        0.44632    0.65602    0.67728    1.000
    Si2655   Si       0.41079    0.72303    0.62468    1.000
    N2656    N        0.42319    0.52757    0.83109    1.000
    Si2657   Si       0.43114    0.51920    0.79083    1.000
    N2658    N        0.41223    0.54897    0.76445    1.000
    Si2659   Si       0.45278    0.55341    0.84967    1.000
    Si2660   Si       0.45721    0.64685    0.84170    1.000
    N2661    N        0.42974    0.64862    0.80617    1.000
    N2662    N        0.44181    0.75118    0.81692    1.000
    Si2663   Si       0.43829    0.72524    0.85001    1.000
    Si2664   Si       0.45105    0.73958    0.77429    1.000
    N2665    N        0.41282    0.73717    0.75027    1.000
    Si2666   Si       0.45447    0.65918    0.77098    1.000
    N2667    N        0.42331    0.64096    0.86910    1.000
    N2668    N        0.41329    0.66317    0.74663    1.000
    Si2669   Si       0.41381    0.62168    0.95413    1.000
    N2670    N        0.43676    0.57047    0.88545    1.000
    Si2671   Si       0.44613    0.61217    0.89414    1.000
    Si2672   Si       0.42221    0.55454    0.98093    1.000
    N2673    N        0.41231    0.53650    0.94263    1.000
    N2674    N        0.41680    0.59636    0.98873    1.000
    N2675    N        0.45327    0.62287    0.93551    1.000
    Si2676   Si       0.40150    0.56148    0.90938    1.000
    N2677    N        0.43297    0.71895    0.95120    1.000
    Si2678   Si       0.41793    0.74649    0.92151    1.000
    Si2679   Si       0.41238    0.69341    0.98002    1.000
    N2680    N        0.44284    0.75027    0.88705    1.000
    N2681    N        0.44204    0.80475    0.04715    1.000
    Si2682   Si       0.43748    0.80249    0.09085    1.000
    Si2683   Si       0.41210    0.81923    0.02081    1.000
    N2684    N        0.45103    0.84114    0.11106    1.000
    N2685    N        0.43578    0.96261    0.06610    1.000
    N2686    N        0.42257    0.91266    0.01674    1.000
    N2687    N        0.43026    0.91082    0.10866    1.000
    Si2688   Si       0.44838    0.95095    0.10768    1.000
    Si2689   Si       0.42516    0.00064    0.05247    1.000
    Si2690   Si       0.45679    0.93096    0.04164    1.000
    Si2691   Si       0.41992    0.77184    0.23377    1.000
    N2692    N        0.42380    0.79888    0.16215    1.000
    Si2693   Si       0.43741    0.83780    0.15237    1.000
    N2694    N        0.40994    0.86887    0.16129    1.000
    Si2695   Si       0.45103    0.00372    0.24341    1.000
    Si2696   Si       0.40702    0.90479    0.18709    1.000
    N2697    N        0.43099    0.97830    0.13756    1.000
    Si2698   Si       0.42556    0.97381    0.17951    1.000
    N2699    N        0.43856    0.93405    0.18956    1.000
    N2700    N        0.43436    0.86353    0.34331    1.000
    N2701    N        0.42340    0.79881    0.30760    1.000
    Si2702   Si       0.44903    0.83030    0.32057    1.000
    Si2703   Si       0.44497    0.76080    0.30305    1.000
    Si2704   Si       0.41495    0.95821    0.35672    1.000
    N2705    N        0.41246    0.96119    0.31208    1.000
    N2706    N        0.44086    0.99140    0.36491    1.000
    Si2707   Si       0.45162    0.95250    0.29123    1.000
    N2708    N        0.45397    0.96201    0.24951    1.000
    Si2709   Si       0.45895    0.89930    0.34745    1.000
    N2710    N        0.43191    0.92235    0.37268    1.000
    N2711    N        0.45814    0.91175    0.30680    1.000
    Si2712   Si       0.42427    0.76841    0.47902    1.000
    N2713    N        0.44535    0.77508    0.39977    1.000
    N2714    N        0.44760    0.85388    0.47776    1.000
    Si2715   Si       0.40477    0.84509    0.48864    1.000
    Si2716   Si       0.45188    0.87839    0.44053    1.000
    N2717    N        0.41203    0.98046    0.47419    1.000
    N2718    N        0.41997    0.90775    0.43918    1.000
    Si2719   Si       0.45135    0.99874    0.45866    1.000
    N2720    N        0.41975    0.80420    0.58128    1.000
    N2721    N        0.45146    0.86242    0.60507    1.000
    Si2722   Si       0.44816    0.81966    0.61090    1.000
    Si2723   Si       0.42247    0.76199    0.55794    1.000
    Si2724   Si       0.42054    0.89311    0.60981    1.000
    N2725    N        0.43862    0.97528    0.60469    1.000
    N2726    N        0.41708    0.91281    0.57162    1.000
    N2727    N        0.41350    0.97405    0.53758    1.000
    Si2728   Si       0.41006    0.95571    0.57775    1.000
    Si2729   Si       0.42670    0.95017    0.50364    1.000
    N2730    N        0.40511    0.78624    0.70125    1.000
    N2731    N        0.45470    0.81446    0.65594    1.000
    Si2732   Si       0.43987    0.77619    0.67261    1.000
    Si2733   Si       0.44657    0.84081    0.69165    1.000
    N2734    N        0.40783    0.85702    0.67430    1.000
    N2735    N        0.41113    0.76292    0.64344    1.000
    Si2736   Si       0.42196    0.89758    0.68012    1.000
    N2737    N        0.43467    0.97849    0.72939    1.000
    N2738    N        0.45999    0.88439    0.69768    1.000
    N2739    N        0.43363    0.91832    0.64432    1.000
    Si2740   Si       0.42222    0.93838    0.74480    1.000
    Si2741   Si       0.42664    0.00748    0.65274    1.000
    N2742    N        0.41974    0.79861    0.77507    1.000
    N2743    N        0.42164    0.81264    0.84519    1.000
    Si2744   Si       0.41240    0.78305    0.81575    1.000
    Si2745   Si       0.44839    0.91960    0.80385    1.000
    N2746    N        0.45142    0.91347    0.76183    1.000
    N2747    N        0.40764    0.91947    0.82072    1.000
    Si2748   Si       0.45178    0.00222    0.80866    1.000
    N2749    N        0.41539    0.83944    0.91216    1.000
    N2750    N        0.42485    0.82841    0.98074    1.000
    Si2751   Si       0.44318    0.87258    0.91653    1.000
    N2752    N        0.45803    0.88184    0.95664    1.000
    N2753    N        0.43268    0.90519    0.88838    1.000
    Si2754   Si       0.40875    0.93564    0.91205    1.000
    N2755    N        0.41662    0.97389    0.92716    1.000
    Si2756   Si       0.43505    0.91304    0.97500    1.000
    Si2757   Si       0.44361    0.98558    0.95836    1.000
    Si2758   Si       0.50289    0.02927    0.04963    1.000
    N2759    N        0.50594    0.06320    0.07904    1.000
    Si2760   Si       0.49220    0.06834    0.11990    1.000
    N2761    N        0.51527    0.12494    0.04566    1.000
    N2762    N        0.47854    0.20136    0.03369    1.000
    N2763    N        0.49209    0.18164    0.09862    1.000
    N2764    N        0.47185    0.24946    0.08195    1.000
    Si2765   Si       0.46833    0.20794    0.07351    1.000
    Si2766   Si       0.49691    0.14024    0.08237    1.000
    N2767    N        0.50571    0.25292    0.99928    1.000
    N2768    N        0.45706    0.14259    0.99935    1.000
    N2769    N        0.48705    0.11183    0.12137    1.000
    Si2770   Si       0.51068    0.05474    0.23719    1.000
    N2771    N        0.48542    0.07284    0.20123    1.000
    Si2772   Si       0.51811    0.13246    0.14173    1.000
    N2773    N        0.45911    0.14140    0.21246    1.000
    N2774    N        0.46081    0.22829    0.14976    1.000
    Si2775   Si       0.49440    0.20345    0.13883    1.000
    N2776    N        0.51131    0.17019    0.16122    1.000
    Si2777   Si       0.48840    0.16388    0.23724    1.000
    Si2778   Si       0.47830    0.10306    0.28912    1.000
    N2779    N        0.48347    0.04003    0.33676    1.000
    N2780    N        0.50291    0.09947    0.32697    1.000
    Si2781   Si       0.50990    0.12466    0.36249    1.000
    Si2782   Si       0.46526    0.07861    0.34967    1.000
    N2783    N        0.51408    0.08527    0.26793    1.000
    N2784    N        0.49242    0.01815    0.24762    1.000
    N2785    N        0.48176    0.14455    0.27499    1.000
    N2786    N        0.49246    0.15910    0.34276    1.000
    Si2787   Si       0.48967    0.22946    0.27917    1.000
    Si2788   Si       0.50882    0.16566    0.30469    1.000
    Si2789   Si       0.46859    0.25405    0.34715    1.000
    Si2790   Si       0.45987    0.17900    0.36116    1.000
    N2791    N        0.47446    0.20609    0.24522    1.000
    N2792    N        0.47994    0.10168    0.38931    1.000
    N2793    N        0.46966    0.12837    0.45571    1.000
    N2794    N        0.48852    0.03822    0.41244    1.000
    Si2795   Si       0.49713    0.12034    0.42353    1.000
    N2796    N        0.46568    0.01557    0.49793    1.000
    N2797    N        0.51551    0.15168    0.40242    1.000
    N2798    N        0.46986    0.21881    0.37582    1.000
    Si2799   Si       0.48162    0.19733    0.48638    1.000
    N2800    N        0.49103    0.25260    0.44088    1.000
    N2801    N        0.46331    0.19568    0.44626    1.000
    Si2802   Si       0.46106    0.22857    0.41943    1.000
    N2803    N        0.47587    0.08955    0.59808    1.000
    N2804    N        0.49786    0.02177    0.60334    1.000
    Si2805   Si       0.49328    0.12642    0.61005    1.000
    N2806    N        0.51394    0.11327    0.51172    1.000
    Si2807   Si       0.47265    0.12374    0.49837    1.000
    Si2808   Si       0.47326    0.05295    0.62150    1.000
    Si2809   Si       0.49405    0.23901    0.60390    1.000
    N2810    N        0.50240    0.14899    0.57350    1.000
    N2811    N        0.50380    0.21939    0.56325    1.000
    N2812    N        0.47245    0.16431    0.51255    1.000
    N2813    N        0.46553    0.23079    0.50806    1.000
    Si2814   Si       0.46686    0.16571    0.55489    1.000
    Si2815   Si       0.46388    0.23358    0.55192    1.000
    N2816    N        0.48809    0.05565    0.66330    1.000
    Si2817   Si       0.47447    0.08683    0.69078    1.000
    N2818    N        0.46825    0.07804    0.73422    1.000
    N2819    N        0.49212    0.01765    0.71855    1.000
    N2820    N        0.50884    0.11249    0.70114    1.000
    Si2821   Si       0.51707    0.02766    0.68311    1.000
    N2822    N        0.51823    0.18655    0.67472    1.000
    Si2823   Si       0.51344    0.14264    0.66763    1.000
    N2824    N        0.48358    0.24300    0.70092    1.000
    N2825    N        0.47528    0.14447    0.64420    1.000
    Si2826   Si       0.48281    0.21111    0.67181    1.000
    N2827    N        0.46959    0.21628    0.63118    1.000
    N2828    N        0.50183    0.05737    0.84230    1.000
    N2829    N        0.48141    0.02804    0.78808    1.000
    Si2830   Si       0.49265    0.04623    0.75054    1.000
    Si2831   Si       0.46548    0.04763    0.86229    1.000
    Si2832   Si       0.51611    0.02427    0.81680    1.000
    Si2833   Si       0.47042    0.11895    0.74480    1.000
    N2834    N        0.48289    0.13832    0.78098    1.000
    N2835    N        0.49729    0.16374    0.84166    1.000
    N2836    N        0.48622    0.24586    0.82384    1.000
    Si2837   Si       0.48905    0.25200    0.78110    1.000
    Si2838   Si       0.46708    0.17133    0.87233    1.000
    Si2839   Si       0.47376    0.11034    0.97431    1.000
    N2840    N        0.47454    0.06435    0.90199    1.000
    N2841    N        0.47518    0.06417    0.96991    1.000
    Si2842   Si       0.48067    0.10845    0.90238    1.000
    Si2843   Si       0.51887    0.06648    0.97816    1.000
    N2844    N        0.51688    0.11215    0.97283    1.000
    N2845    N        0.51629    0.23558    0.93709    1.000
    N2846    N        0.51521    0.18409    0.98489    1.000
    Si2847   Si       0.48202    0.24896    0.96348    1.000
    N2848    N        0.49605    0.17560    0.90443    1.000
    Si2849   Si       0.47072    0.18322    0.99561    1.000
    Si2850   Si       0.51832    0.19213    0.94072    1.000
    N2851    N        0.45882    0.21028    0.96503    1.000
    N2852    N        0.50692    0.30400    0.05551    1.000
    Si2853   Si       0.46651    0.28662    0.06255    1.000
    N2854    N        0.46137    0.37415    0.03656    1.000
    N2855    N        0.51318    0.47716    0.05177    1.000
    Si2856   Si       0.50150    0.46764    0.01176    1.000
    N2857    N        0.49862    0.40607    0.07639    1.000
    Si2858   Si       0.47208    0.49038    0.06142    1.000
    Si2859   Si       0.50217    0.39370    0.03341    1.000
    N2860    N        0.50634    0.42554    0.00474    1.000
    N2861    N        0.46414    0.47460    0.09998    1.000
    N2862    N        0.48113    0.32479    0.22975    1.000
    N2863    N        0.48137    0.29039    0.14112    1.000
    Si2864   Si       0.51825    0.27059    0.15569    1.000
    Si2865   Si       0.46039    0.36305    0.22501    1.000
    Si2866   Si       0.50079    0.48912    0.12228    1.000
    N2867    N        0.48879    0.39438    0.21745    1.000
    Si2868   Si       0.48587    0.43411    0.23700    1.000
    N2869    N        0.46371    0.46077    0.21398    1.000
    N2870    N        0.48203    0.49814    0.15967    1.000
    N2871    N        0.50247    0.40158    0.15136    1.000
    Si2872   Si       0.48355    0.34267    0.31812    1.000
    N2873    N        0.49446    0.28746    0.35773    1.000
    Si2874   Si       0.47277    0.29338    0.25739    1.000
    N2875    N        0.50845    0.26376    0.26309    1.000
    N2876    N        0.46381    0.31214    0.29474    1.000
    N2877    N        0.48614    0.38101    0.29946    1.000
    Si2878   Si       0.49266    0.47999    0.31680    1.000
    N2879    N        0.51279    0.44117    0.31929    1.000
    N2880    N        0.51650    0.49112    0.35641    1.000
    N2881    N        0.45723    0.43943    0.27083    1.000
    N2882    N        0.50191    0.31090    0.48000    1.000
    N2883    N        0.47894    0.31402    0.41714    1.000
    Si2884   Si       0.47604    0.29005    0.45386    1.000
    Si2885   Si       0.46299    0.31005    0.37799    1.000
    Si2886   Si       0.49446    0.42688    0.45942    1.000
    N2887    N        0.48592    0.38888    0.44045    1.000
    Si2888   Si       0.47080    0.49868    0.43919    1.000
    N2889    N        0.46821    0.50144    0.48377    1.000
    Si2890   Si       0.50204    0.39000    0.39947    1.000
    N2891    N        0.46615    0.40440    0.38008    1.000
    N2892    N        0.47492    0.45664    0.43109    1.000
    N2893    N        0.49317    0.32287    0.60526    1.000
    Si2894   Si       0.48263    0.34096    0.50347    1.000
    N2895    N        0.51224    0.37164    0.51303    1.000
    N2896    N        0.46951    0.26586    0.58005    1.000
    Si2897   Si       0.46130    0.30805    0.58003    1.000
    N2898    N        0.46448    0.32634    0.54027    1.000
    Si2899   Si       0.50218    0.41285    0.52895    1.000
    N2900    N        0.49155    0.40418    0.57067    1.000
    N2901    N        0.49369    0.49366    0.54510    1.000
    N2902    N        0.47704    0.43323    0.49933    1.000
    N2903    N        0.47996    0.33123    0.67015    1.000
    Si2904   Si       0.48375    0.35379    0.63381    1.000
    N2905    N        0.51663    0.38342    0.63302    1.000
    N2906    N        0.51441    0.48640    0.62141    1.000
    N2907    N        0.47702    0.47123    0.73017    1.000
    Si2908   Si       0.50930    0.44245    0.72792    1.000
    Si2909   Si       0.47502    0.50855    0.62628    1.000
    N2910    N        0.47989    0.31416    0.84492    1.000
    Si2911   Si       0.48461    0.35376    0.83023    1.000
    N2912    N        0.49544    0.29218    0.77409    1.000
    N2913    N        0.47161    0.35645    0.78898    1.000
    N2914    N        0.46498    0.38511    0.85641    1.000
    N2915    N        0.48855    0.42694    0.81113    1.000
    Si2916   Si       0.47263    0.40066    0.77871    1.000
    Si2917   Si       0.48169    0.42447    0.85532    1.000
    N2918    N        0.50736    0.40454    0.75061    1.000
    Si2919   Si       0.49514    0.30754    0.88490    1.000
    N2920    N        0.50705    0.34852    0.90092    1.000
    Si2921   Si       0.48557    0.37288    0.93203    1.000
    N2922    N        0.51053    0.36989    0.96628    1.000
    N2923    N        0.48632    0.41761    0.93492    1.000
    Si2924   Si       0.51688    0.41454    0.96507    1.000
    N2925    N        0.51462    0.49571    0.98029    1.000
    N2926    N        0.51054    0.47604    0.90144    1.000
    Si2927   Si       0.47399    0.45485    0.91728    1.000
    N2928    N        0.50345    0.59290    0.09013    1.000
    Si2929   Si       0.49642    0.55229    0.07700    1.000
    Si2930   Si       0.48930    0.57790    0.00452    1.000
    Si2931   Si       0.48259    0.62250    0.06826    1.000
    N2932    N        0.51185    0.55737    0.03706    1.000
    N2933    N        0.46531    0.60507    0.03205    1.000
    N2934    N        0.51840    0.52591    0.10605    1.000
    N2935    N        0.49695    0.66160    0.05145    1.000
    Si2936   Si       0.48635    0.67249    0.01041    1.000
    N2937    N        0.51045    0.73074    0.05890    1.000
    N2938    N        0.48778    0.56914    0.16016    1.000
    N2939    N        0.49428    0.53298    0.22261    1.000
    Si2940   Si       0.50098    0.53269    0.18064    1.000
    Si2941   Si       0.51348    0.59296    0.13370    1.000
    N2942    N        0.46571    0.69142    0.13649    1.000
    N2943    N        0.47125    0.67747    0.20976    1.000
    N2944    N        0.51109    0.63613    0.14118    1.000
    N2945    N        0.51294    0.74387    0.23113    1.000
    Si2946   Si       0.48166    0.70276    0.17455    1.000
    N2947    N        0.46829    0.74580    0.17836    1.000
    Si2948   Si       0.46951    0.64835    0.13425    1.000
    N2949    N        0.50247    0.60572    0.32837    1.000
    Si2950   Si       0.47600    0.57972    0.35077    1.000
    N2951    N        0.49612    0.51766    0.29227    1.000
    Si2952   Si       0.51420    0.54367    0.26190    1.000
    Si2953   Si       0.51571    0.61556    0.28858    1.000
    N2954    N        0.48081    0.63525    0.27129    1.000
    N2955    N        0.50370    0.68809    0.34431    1.000
    N2956    N        0.47701    0.70270    0.28416    1.000
    Si2957   Si       0.46579    0.69615    0.32590    1.000
    Si2958   Si       0.50520    0.73489    0.27442    1.000
    Si2959   Si       0.48777    0.67376    0.25154    1.000
    N2960    N        0.51286    0.56402    0.37215    1.000
    Si2961   Si       0.48900    0.56890    0.41418    1.000
    N2962    N        0.49839    0.52442    0.41910    1.000
    Si2963   Si       0.49778    0.58447    0.47683    1.000
    N2964    N        0.49609    0.62558    0.49045    1.000
    N2965    N        0.51772    0.59121    0.43961    1.000
    Si2966   Si       0.51362    0.66681    0.38163    1.000
    N2967    N        0.50045    0.73490    0.42655    1.000
    N2968    N        0.47641    0.67118    0.40519    1.000
    Si2969   Si       0.47946    0.69781    0.43867    1.000
    Si2970   Si       0.47696    0.58479    0.56503    1.000
    Si2971   Si       0.48540    0.52613    0.51550    1.000
    N2972    N        0.51076    0.57221    0.58502    1.000
    N2973    N        0.48043    0.62660    0.55449    1.000
    N2974    N        0.51629    0.55350    0.50062    1.000
    N2975    N        0.46306    0.56304    0.52872    1.000
    Si2976   Si       0.46478    0.63893    0.51580    1.000
    N2977    N        0.46865    0.68131    0.51950    1.000
    Si2978   Si       0.47829    0.72773    0.59646    1.000
    Si2979   Si       0.49713    0.65283    0.58433    1.000
    N2980    N        0.49663    0.69579    0.57544    1.000
    Si2981   Si       0.50702    0.69778    0.53363    1.000
    N2982    N        0.50949    0.73674    0.51541    1.000
    N2983    N        0.46702    0.75865    0.56800    1.000
    N2984    N        0.47272    0.64141    0.61895    1.000
    N2985    N        0.49558    0.59906    0.68985    1.000
    Si2986   Si       0.47445    0.56343    0.67750    1.000
    N2987    N        0.49463    0.54033    0.64775    1.000
    Si2988   Si       0.46379    0.62557    0.70316    1.000
    N2989    N        0.46342    0.53386    0.71140    1.000
    Si2990   Si       0.48909    0.51310    0.74216    1.000
    Si2991   Si       0.50315    0.73178    0.66437    1.000
    N2992    N        0.50938    0.68739    0.65632    1.000
    N2993    N        0.48105    0.64127    0.73897    1.000
    Si2994   Si       0.47048    0.67365    0.64656    1.000
    N2995    N        0.47573    0.75735    0.68751    1.000
    N2996    N        0.50797    0.74802    0.62208    1.000
    N2997    N        0.48730    0.52722    0.85567    1.000
    Si2998   Si       0.50513    0.60475    0.81573    1.000
    N2999    N        0.46902    0.58299    0.82385    1.000
    N3000    N        0.47480    0.51437    0.78521    1.000
    Si3001   Si       0.50545    0.51246    0.81796    1.000
    N3002    N        0.48174    0.62640    0.87089    1.000
    N3003    N        0.46991    0.70009    0.77668    1.000
    N3004    N        0.49254    0.64685    0.80935    1.000
    Si3005   Si       0.49361    0.68874    0.80983    1.000
    N3006    N        0.46774    0.69265    0.84743    1.000
    Si3007   Si       0.48445    0.51809    0.95931    1.000
    N3008    N        0.50314    0.54148    0.92674    1.000
    Si3009   Si       0.51044    0.51663    0.89149    1.000
    N3010    N        0.46558    0.54841    0.98460    1.000
    N3011    N        0.48679    0.68510    0.92448    1.000
    N3012    N        0.51181    0.73749    0.87355    1.000
    Si3013   Si       0.49146    0.64551    0.94144    1.000
    Si3014   Si       0.47652    0.71711    0.95431    1.000
    N3015    N        0.49309    0.71180    0.99330    1.000
    Si3016   Si       0.49790    0.69743    0.88221    1.000
    N3017    N        0.50779    0.64855    0.98288    1.000
    Si3018   Si       0.48135    0.80445    0.03235    1.000
    N3019    N        0.48498    0.84295    0.01125    1.000
    N3020    N        0.50720    0.80148    0.06672    1.000
    Si3021   Si       0.50365    0.87678    0.03006    1.000
    Si3022   Si       0.50077    0.76545    0.08765    1.000
    N3023    N        0.49714    0.77669    0.00351    1.000
    Si3024   Si       0.46399    0.88317    0.09865    1.000
    N3025    N        0.45932    0.76381    0.10306    1.000
    N3026    N        0.47531    0.89562    0.05868    1.000
    N3027    N        0.49170    0.95571    0.03135    1.000
    N3028    N        0.49129    0.95370    0.10252    1.000
    Si3029   Si       0.51348    0.95997    0.06536    1.000
    N3030    N        0.51068    0.90368    0.99810    1.000
    Si3031   Si       0.50517    0.85860    0.15250    1.000
    Si3032   Si       0.49205    0.77142    0.20522    1.000
    N3033    N        0.47128    0.85052    0.17897    1.000
    Si3034   Si       0.49225    0.86217    0.21512    1.000
    N3035    N        0.45961    0.79078    0.22938    1.000
    N3036    N        0.51410    0.83499    0.24494    1.000
    N3037    N        0.49699    0.88966    0.12519    1.000
    N3038    N        0.47354    0.89472    0.23659    1.000
    Si3039   Si       0.46916    0.93282    0.21991    1.000
    N3040    N        0.50529    0.94698    0.20517    1.000
    N3041    N        0.48572    0.77372    0.28986    1.000
    Si3042   Si       0.47952    0.81072    0.26114    1.000
    N3043    N        0.48032    0.81215    0.34653    1.000
    Si3044   Si       0.50894    0.78758    0.32527    1.000
    N3045    N        0.46605    0.84348    0.28569    1.000
    Si3046   Si       0.47793    0.88413    0.27972    1.000
    N3047    N        0.48186    0.97924    0.30763    1.000
    N3048    N        0.50093    0.90237    0.35997    1.000
    Si3049   Si       0.48186    0.99741    0.34632    1.000
    Si3050   Si       0.51134    0.99338    0.27957    1.000
    Si3051   Si       0.50685    0.83941    0.42469    1.000
    Si3052   Si       0.47681    0.77047    0.42827    1.000
    N3053    N        0.50487    0.79945    0.40723    1.000
    Si3054   Si       0.47607    0.82312    0.48852    1.000
    Si3055   Si       0.46603    0.81190    0.38718    1.000
    N3056    N        0.46384    0.84847    0.41164    1.000
    N3057    N        0.51248    0.83353    0.46659    1.000
    N3058    N        0.46381    0.78545    0.46800    1.000
    N3059    N        0.48751    0.90417    0.43124    1.000
    N3060    N        0.51379    0.98284    0.37134    1.000
    Si3061   Si       0.51608    0.90217    0.39863    1.000
    Si3062   Si       0.50992    0.99955    0.41080    1.000
    N3063    N        0.46909    0.94689    0.49192    1.000
    Si3064   Si       0.49412    0.93952    0.45632    1.000
    N3065    N        0.48484    0.97700    0.43837    1.000
    N3066    N        0.49189    0.81132    0.60482    1.000
    N3067    N        0.48485    0.81010    0.52934    1.000
    Si3068   Si       0.50643    0.82122    0.56571    1.000
    N3069    N        0.51427    0.86336    0.57414    1.000
    Si3070   Si       0.47931    0.76668    0.52580    1.000
    Si3071   Si       0.49253    0.88160    0.60814    1.000
    N3072    N        0.48200    0.97680    0.55648    1.000
    Si3073   Si       0.48869    0.98341    0.51375    1.000
    N3074    N        0.49108    0.92533    0.60738    1.000
    Si3075   Si       0.51031    0.94745    0.57392    1.000
    Si3076   Si       0.45942    0.00632    0.58103    1.000
    N3077    N        0.51755    0.80385    0.68053    1.000
    Si3078   Si       0.49589    0.78994    0.71561    1.000
    N3079    N        0.50783    0.86277    0.64636    1.000
    Si3080   Si       0.49793    0.82178    0.64794    1.000
    N3081    N        0.46335    0.81909    0.72394    1.000
    N3082    N        0.51309    0.87856    0.74220    1.000
    Si3083   Si       0.48104    0.90364    0.72985    1.000
    Si3084   Si       0.47163    0.97999    0.70655    1.000
    N3085    N        0.49487    0.94385    0.71808    1.000
    Si3086   Si       0.46063    0.94908    0.63305    1.000
    N3087    N        0.46011    0.98134    0.66379    1.000
    Si3088   Si       0.50159    0.81483    0.83379    1.000
    N3089    N        0.48214    0.83304    0.79898    1.000
    N3090    N        0.48252    0.76854    0.76120    1.000
    Si3091   Si       0.50418    0.87428    0.81085    1.000
    Si3092   Si       0.46121    0.81107    0.76807    1.000
    Si3093   Si       0.48400    0.96867    0.84639    1.000
    N3094    N        0.47205    0.89485    0.82971    1.000
    Si3095   Si       0.47282    0.90400    0.87078    1.000
    N3096    N        0.46215    0.00626    0.85318    1.000
    N3097    N        0.46291    0.95899    0.80791    1.000
    N3098    N        0.49417    0.80481    0.87761    1.000
    Si3099   Si       0.46557    0.84173    0.97301    1.000
    Si3100   Si       0.48436    0.76496    0.89318    1.000
    Si3101   Si       0.50835    0.78465    0.96168    1.000
    N3102    N        0.48249    0.87016    0.89648    1.000
    Si3103   Si       0.50444    0.83590    0.90670    1.000
    N3104    N        0.49076    0.82149    0.94622    1.000
    N3105    N        0.49149    0.75579    0.93508    1.000
    Si3106   Si       0.51916    0.00388    0.93963    1.000
    N3107    N        0.49518    0.94001    0.87686    1.000
    Si3108   Si       0.50153    0.94492    0.98983    1.000
    N3109    N        0.47571    0.00634    0.93875    1.000
    N3110    N        0.45988    0.94806    0.97365    1.000
    Si3111   Si       0.53204    0.08519    0.04929    1.000
    N3112    N        0.52241    0.05540    0.01915    1.000
    N3113    N        0.57420    0.09126    0.05424    1.000
    N3114    N        0.58062    0.04012    0.09894    1.000
    N3115    N        0.54103    0.13850    0.10503    1.000
    Si3116   Si       0.53183    0.15160    0.01280    1.000
    N3117    N        0.54373    0.24742    0.04817    1.000
    N3118    N        0.54478    0.18424    0.04053    1.000
    Si3119   Si       0.56924    0.21448    0.06331    1.000
    N3120    N        0.57577    0.19630    0.10306    1.000
    Si3121   Si       0.51874    0.21504    0.02235    1.000
    Si3122   Si       0.56066    0.03490    0.13692    1.000
    N3123    N        0.53845    0.11640    0.17546    1.000
    N3124    N        0.52461    0.05718    0.14480    1.000
    N3125    N        0.54640    0.05348    0.21355    1.000
    Si3126   Si       0.52610    0.07565    0.18269    1.000
    Si3127   Si       0.57762    0.02526    0.20608    1.000
    N3128    N        0.52719    0.23076    0.14426    1.000
    Si3129   Si       0.56853    0.21469    0.14178    1.000
    N3130    N        0.53158    0.15840    0.23002    1.000
    Si3131   Si       0.54360    0.15788    0.18952    1.000
    Si3132   Si       0.54765    0.10361    0.28472    1.000
    N3133    N        0.56241    0.07400    0.31178    1.000
    N3134    N        0.55467    0.12098    0.35944    1.000
    N3135    N        0.53578    0.02191    0.29976    1.000
    Si3136   Si       0.52518    0.05639    0.32846    1.000
    Si3137   Si       0.57146    0.08090    0.35479    1.000
    N3138    N        0.53873    0.05925    0.37114    1.000
    Si3139   Si       0.55416    0.21734    0.32556    1.000
    N3140    N        0.54864    0.14758    0.29732    1.000
    N3141    N        0.55941    0.18569    0.35406    1.000
    Si3142   Si       0.56585    0.15293    0.25562    1.000
    Si3143   Si       0.57234    0.15117    0.33418    1.000
    N3144    N        0.54776    0.25419    0.34287    1.000
    N3145    N        0.51888    0.20778    0.30174    1.000
    N3146    N        0.54657    0.01930    0.42339    1.000
    Si3147   Si       0.54224    0.09594    0.48011    1.000
    Si3148   Si       0.52832    0.05786    0.41139    1.000
    N3149    N        0.52384    0.09074    0.44063    1.000
    Si3150   Si       0.52940    0.23221    0.44936    1.000
    Si3151   Si       0.55898    0.24935    0.38644    1.000
    N3152    N        0.52481    0.20060    0.47927    1.000
    Si3153   Si       0.55889    0.17662    0.49201    1.000
    N3154    N        0.54428    0.21855    0.41169    1.000
    N3155    N        0.56174    0.13701    0.47747    1.000
    Si3156   Si       0.54910    0.17785    0.39658    1.000
    N3157    N        0.55416    0.10703    0.56810    1.000
    N3158    N        0.55411    0.03589    0.55852    1.000
    Si3159   Si       0.55557    0.02222    0.51765    1.000
    Si3160   Si       0.56602    0.11411    0.61041    1.000
    Si3161   Si       0.54062    0.01359    0.59382    1.000
    N3162    N        0.56163    0.06344    0.50451    1.000
    Si3163   Si       0.57318    0.07091    0.54729    1.000
    Si3164   Si       0.53063    0.13619    0.54508    1.000
    Si3165   Si       0.54467    0.21553    0.55208    1.000
    N3166    N        0.55634    0.17291    0.53714    1.000
    N3167    N        0.56564    0.24761    0.53420    1.000
    N3168    N        0.56818    0.20823    0.58774    1.000
    N3169    N        0.56783    0.01262    0.62756    1.000
    Si3170   Si       0.54221    0.08941    0.71576    1.000
    N3171    N        0.54929    0.05642    0.68534    1.000
    N3172    N        0.53182    0.12623    0.63360    1.000
    Si3173   Si       0.52242    0.25084    0.71789    1.000
    N3174    N        0.52802    0.25248    0.62503    1.000
    N3175    N        0.56303    0.17278    0.72236    1.000
    Si3176   Si       0.56589    0.23120    0.62401    1.000
    Si3177   Si       0.55736    0.19678    0.68695    1.000
    N3178    N        0.56035    0.23757    0.70424    1.000
    N3179    N        0.55706    0.03792    0.80966    1.000
    N3180    N        0.53740    0.10953    0.81594    1.000
    Si3181   Si       0.55654    0.07718    0.78837    1.000
    Si3182   Si       0.53227    0.08720    0.85271    1.000
    N3183    N        0.53061    0.07052    0.75439    1.000
    N3184    N        0.54852    0.17391    0.79383    1.000
    N3185    N        0.55521    0.23664    0.82428    1.000
    Si3186   Si       0.55300    0.19766    0.75823    1.000
    Si3187   Si       0.56599    0.19382    0.82854    1.000
    N3188    N        0.56070    0.17605    0.86832    1.000
    N3189    N        0.52145    0.23104    0.75828    1.000
    Si3190   Si       0.51728    0.14672    0.80627    1.000
    N3191    N        0.56156    0.06101    0.87376    1.000
    Si3192   Si       0.56593    0.05834    0.91655    1.000
    N3193    N        0.53812    0.04293    0.94718    1.000
    Si3194   Si       0.55463    0.12757    0.95574    1.000
    N3195    N        0.57724    0.09600    0.93384    1.000
    N3196    N        0.51910    0.11373    0.88377    1.000
    N3197    N        0.56980    0.13606    0.99837    1.000
    Si3198   Si       0.54577    0.25486    0.91095    1.000
    Si3199   Si       0.52405    0.15548    0.87857    1.000
    N3200    N        0.55465    0.16512    0.93166    1.000
    N3201    N        0.57839    0.22597    0.90959    1.000
    Si3202   Si       0.53319    0.33600    0.06754    1.000
    N3203    N        0.53321    0.36404    0.03307    1.000
    N3204    N        0.52803    0.35213    0.10785    1.000
    N3205    N        0.55254    0.30826    0.00637    1.000
    Si3206   Si       0.52599    0.28038    0.02655    1.000
    N3207    N        0.57463    0.32060    0.07188    1.000
    Si3208   Si       0.54631    0.46130    0.07432    1.000
    N3209    N        0.57260    0.42992    0.06166    1.000
    N3210    N        0.57354    0.49723    0.07275    1.000
    N3211    N        0.53207    0.45968    0.11651    1.000
    Si3212   Si       0.52194    0.39658    0.11299    1.000
    Si3213   Si       0.54286    0.26544    0.23717    1.000
    N3214    N        0.53015    0.34760    0.18275    1.000
    Si3215   Si       0.54450    0.33699    0.14515    1.000
    N3216    N        0.55118    0.29361    0.13948    1.000
    N3217    N        0.55430    0.31164    0.24093    1.000
    N3218    N        0.52324    0.27491    0.19873    1.000
    Si3219   Si       0.52111    0.31681    0.21260    1.000
    Si3220   Si       0.55163    0.43722    0.15213    1.000
    Si3221   Si       0.56080    0.43897    0.23083    1.000
    Si3222   Si       0.57473    0.49529    0.18616    1.000
    N3223    N        0.56420    0.40546    0.12455    1.000
    N3224    N        0.54839    0.42097    0.19314    1.000
    N3225    N        0.57435    0.48007    0.22529    1.000
    Si3226   Si       0.52026    0.38827    0.18950    1.000
    Si3227   Si       0.56351    0.35023    0.31923    1.000
    Si3228   Si       0.53833    0.29609    0.34911    1.000
    N3229    N        0.52386    0.32892    0.32161    1.000
    N3230    N        0.57487    0.38122    0.35077    1.000
    N3231    N        0.55443    0.38434    0.29054    1.000
    Si3232   Si       0.53508    0.45114    0.35773    1.000
    N3233    N        0.52458    0.43484    0.25412    1.000
    Si3234   Si       0.51912    0.40885    0.29067    1.000
    N3235    N        0.55977    0.32810    0.44934    1.000
    Si3236   Si       0.57167    0.36960    0.39038    1.000
    N3237    N        0.52983    0.35739    0.39564    1.000
    Si3238   Si       0.54314    0.30220    0.48032    1.000
    N3239    N        0.54799    0.28982    0.39888    1.000
    Si3240   Si       0.52298    0.32160    0.41846    1.000
    N3241    N        0.55502    0.26203    0.46901    1.000
    N3242    N        0.57491    0.38317    0.49464    1.000
    N3243    N        0.53092    0.42649    0.39262    1.000
    Si3244   Si       0.55975    0.43049    0.42522    1.000
    Si3245   Si       0.56300    0.42725    0.49424    1.000
    N3246    N        0.53764    0.43840    0.46137    1.000
    N3247    N        0.56009    0.29430    0.58477    1.000
    Si3248   Si       0.55214    0.35789    0.52104    1.000
    N3249    N        0.55782    0.36888    0.56251    1.000
    N3250    N        0.56096    0.31655    0.51795    1.000
    Si3251   Si       0.53092    0.29816    0.61597    1.000
    Si3252   Si       0.57700    0.28818    0.54661    1.000
    Si3253   Si       0.52785    0.39045    0.59251    1.000
    Si3254   Si       0.53500    0.47850    0.54152    1.000
    N3255    N        0.53882    0.43622    0.52961    1.000
    Si3256   Si       0.55049    0.46045    0.60830    1.000
    N3257    N        0.56140    0.48295    0.57376    1.000
    N3258    N        0.56110    0.41964    0.59462    1.000
    N3259    N        0.55404    0.50222    0.51146    1.000
    N3260    N        0.54819    0.31819    0.65095    1.000
    N3261    N        0.53040    0.36242    0.69943    1.000
    Si3262   Si       0.53868    0.37527    0.74067    1.000
    N3263    N        0.52688    0.29366    0.71641    1.000
    Si3264   Si       0.51944    0.32392    0.68379    1.000
    N3265    N        0.57636    0.38687    0.65541    1.000
    N3266    N        0.52682    0.43225    0.68948    1.000
    Si3267   Si       0.53570    0.39443    0.67014    1.000
    N3268    N        0.54468    0.49958    0.68382    1.000
    Si3269   Si       0.55949    0.45911    0.68259    1.000
    Si3270   Si       0.55544    0.34098    0.81167    1.000
    N3271    N        0.54561    0.34359    0.76920    1.000
    N3272    N        0.55360    0.29826    0.82299    1.000
    Si3273   Si       0.53616    0.30269    0.75887    1.000
    N3274    N        0.52626    0.35919    0.83688    1.000
    N3275    N        0.57150    0.27818    0.76325    1.000
    Si3276   Si       0.52412    0.26799    0.83725    1.000
    Si3277   Si       0.52659    0.44512    0.79741    1.000
    N3278    N        0.52999    0.47604    0.82767    1.000
    Si3279   Si       0.56518    0.48534    0.85342    1.000
    N3280    N        0.55854    0.41655    0.80149    1.000
    N3281    N        0.53968    0.45807    0.75644    1.000
    Si3282   Si       0.53430    0.37333    0.87767    1.000
    Si3283   Si       0.54179    0.34768    0.99102    1.000
    N3284    N        0.57349    0.35630    0.88621    1.000
    N3285    N        0.57322    0.28680    0.92814    1.000
    N3286    N        0.52240    0.27523    0.88023    1.000
    N3287    N        0.57516    0.34958    0.96113    1.000
    N3288    N        0.55146    0.43399    0.94366    1.000
    Si3289   Si       0.53874    0.44403    0.90277    1.000
    N3290    N        0.52378    0.41401    0.87564    1.000
    N3291    N        0.57505    0.45917    0.88605    1.000
    Si3292   Si       0.55646    0.50480    0.98183    1.000
    Si3293   Si       0.55431    0.56847    0.03353    1.000
    Si3294   Si       0.56123    0.52766    0.09983    1.000
    N3295    N        0.56630    0.56556    0.07492    1.000
    N3296    N        0.55994    0.61126    0.02626    1.000
    N3297    N        0.56866    0.53532    0.01022    1.000
    N3298    N        0.57343    0.62888    0.09765    1.000
    N3299    N        0.53894    0.68848    0.10936    1.000
    N3300    N        0.56086    0.67730    0.04441    1.000
    Si3301   Si       0.52604    0.69080    0.06825    1.000
    N3302    N        0.55807    0.73591    0.00427    1.000
    Si3303   Si       0.51524    0.73976    0.01632    1.000
    N3304    N        0.54412    0.52453    0.17520    1.000
    N3305    N        0.55703    0.58713    0.14321    1.000
    Si3306   Si       0.57469    0.55533    0.16861    1.000
    Si3307   Si       0.56981    0.59343    0.24335    1.000
    N3308    N        0.58221    0.58284    0.20343    1.000
    Si3309   Si       0.54327    0.72347    0.13683    1.000
    N3310    N        0.57721    0.65685    0.16328    1.000
    Si3311   Si       0.55067    0.64969    0.12860    1.000
    N3312    N        0.57727    0.63442    0.23282    1.000
    Si3313   Si       0.53846    0.71252    0.21674    1.000
    N3314    N        0.52711    0.70934    0.17480    1.000
    Si3315   Si       0.53371    0.59974    0.35710    1.000
    N3316    N        0.57196    0.58723    0.34216    1.000
    N3317    N        0.53175    0.58488    0.26169    1.000
    N3318    N        0.55399    0.52519    0.26608    1.000
    N3319    N        0.55484    0.63565    0.29770    1.000
    Si3320   Si       0.56866    0.66327    0.26276    1.000
    N3321    N        0.54163    0.72833    0.29858    1.000
    Si3322   Si       0.53620    0.71699    0.33998    1.000
    N3323    N        0.53104    0.68185    0.24682    1.000
    N3324    N        0.52458    0.75798    0.35233    1.000
    Si3325   Si       0.52679    0.52429    0.38394    1.000
    Si3326   Si       0.55226    0.61583    0.42984    1.000
    N3327    N        0.56882    0.52582    0.39228    1.000
    N3328    N        0.53711    0.62890    0.38935    1.000
    N3329    N        0.57182    0.71951    0.46455    1.000
    Si3330   Si       0.52815    0.65498    0.48624    1.000
    N3331    N        0.56127    0.63571    0.46938    1.000
    N3332    N        0.56303    0.75637    0.41120    1.000
    Si3333   Si       0.54220    0.72157    0.43097    1.000
    N3334    N        0.54602    0.69267    0.39885    1.000
    N3335    N        0.51482    0.68468    0.45943    1.000
    Si3336   Si       0.55537    0.54527    0.51617    1.000
    Si3337   Si       0.55039    0.57070    0.59498    1.000
    N3338    N        0.57236    0.55218    0.55888    1.000
    N3339    N        0.53977    0.65165    0.59482    1.000
    N3340    N        0.53671    0.66782    0.52607    1.000
    Si3341   Si       0.56243    0.65428    0.55864    1.000
    N3342    N        0.57359    0.74169    0.53045    1.000
    N3343    N        0.57368    0.74198    0.59582    1.000
    Si3344   Si       0.54825    0.74334    0.49761    1.000
    N3345    N        0.56379    0.53797    0.62374    1.000
    N3346    N        0.56240    0.56388    0.68378    1.000
    N3347    N        0.55322    0.62284    0.72311    1.000
    Si3348   Si       0.54140    0.60245    0.68795    1.000
    Si3349   Si       0.55721    0.52998    0.71306    1.000
    Si3350   Si       0.53246    0.51830    0.64701    1.000
    N3351    N        0.55513    0.62493    0.65365    1.000
    N3352    N        0.52790    0.53465    0.74339    1.000
    N3353    N        0.54149    0.74022    0.68381    1.000
    Si3354   Si       0.54129    0.66309    0.63742    1.000
    N3355    N        0.57418    0.68979    0.64224    1.000
    N3356    N        0.53789    0.60065    0.84582    1.000
    N3357    N        0.53728    0.53960    0.80917    1.000
    Si3358   Si       0.54704    0.56249    0.77248    1.000
    Si3359   Si       0.55269    0.55732    0.84456    1.000
    N3360    N        0.52111    0.59848    0.77697    1.000
    Si3361   Si       0.52193    0.63381    0.75290    1.000
    N3362    N        0.53056    0.71255    0.81322    1.000
    Si3363   Si       0.53555    0.74619    0.83837    1.000
    N3364    N        0.54281    0.67089    0.76048    1.000
    N3365    N        0.55524    0.74600    0.76130    1.000
    Si3366   Si       0.55762    0.70652    0.78071    1.000
    N3367    N        0.56613    0.57694    0.92400    1.000
    N3368    N        0.55202    0.52266    0.87628    1.000
    N3369    N        0.52268    0.58829    0.97902    1.000
    Si3370   Si       0.52358    0.57811    0.93761    1.000
    Si3371   Si       0.54523    0.62499    0.98837    1.000
    Si3372   Si       0.52526    0.62904    0.87921    1.000
    N3373    N        0.51855    0.61846    0.92091    1.000
    N3374    N        0.57740    0.63165    0.88433    1.000
    Si3375   Si       0.57521    0.67343    0.88064    1.000
    N3376    N        0.53186    0.67136    0.87312    1.000
    N3377    N        0.57661    0.63992    0.96222    1.000
    N3378    N        0.53777    0.86093    0.05063    1.000
    Si3379   Si       0.53613    0.83294    0.08454    1.000
    Si3380   Si       0.56715    0.84423    0.02019    1.000
    N3381    N        0.57534    0.81321    0.08653    1.000
    N3382    N        0.57166    0.80165    0.01958    1.000
    N3383    N        0.52714    0.76032    0.12274    1.000
    N3384    N        0.54731    0.93266    0.07878    1.000
    Si3385   Si       0.56607    0.00304    0.08519    1.000
    N3386    N        0.53124    0.99884    0.06114    1.000
    Si3387   Si       0.52128    0.92345    0.11700    1.000
    N3388    N        0.52622    0.83241    0.12606    1.000
    Si3389   Si       0.54121    0.79525    0.14500    1.000
    Si3390   Si       0.53770    0.82616    0.20847    1.000
    N3391    N        0.52788    0.86626    0.18971    1.000
    N3392    N        0.52134    0.79509    0.18363    1.000
    Si3393   Si       0.55883    0.89822    0.18401    1.000
    Si3394   Si       0.56968    0.96455    0.15633    1.000
    N3395    N        0.54847    0.92550    0.15149    1.000
    Si3396   Si       0.54349    0.95611    0.22122    1.000
    N3397    N        0.57204    0.92280    0.21782    1.000
    N3398    N        0.55749    0.99288    0.12662    1.000
    N3399    N        0.56413    0.98601    0.19694    1.000
    Si3400   Si       0.53894    0.84613    0.28082    1.000
    N3401    N        0.54113    0.81189    0.30994    1.000
    N3402    N        0.56694    0.87216    0.33914    1.000
    N3403    N        0.51884    0.88351    0.29239    1.000
    N3404    N        0.56493    0.80992    0.37302    1.000
    N3405    N        0.54166    0.96567    0.26512    1.000
    N3406    N        0.55170    0.94008    0.32788    1.000
    Si3407   Si       0.53279    0.89946    0.32988    1.000
    Si3408   Si       0.55287    0.95876    0.36787    1.000
    Si3409   Si       0.57358    0.95639    0.29321    1.000
    Si3410   Si       0.56839    0.85281    0.37994    1.000
    Si3411   Si       0.55289    0.82712    0.48165    1.000
    Si3412   Si       0.53665    0.78183    0.38768    1.000
    N3413    N        0.53413    0.86163    0.40101    1.000
    N3414    N        0.55293    0.78708    0.49522    1.000
    N3415    N        0.53617    0.93342    0.47028    1.000
    Si3416   Si       0.56903    0.93217    0.44012    1.000
    N3417    N        0.54885    0.92969    0.40148    1.000
    N3418    N        0.54255    0.79584    0.56816    1.000
    N3419    N        0.55230    0.85161    0.51798    1.000
    Si3420   Si       0.54138    0.77130    0.60363    1.000
    Si3421   Si       0.56903    0.78415    0.53680    1.000
    Si3422   Si       0.54134    0.88383    0.54798    1.000
    N3423    N        0.54509    0.97051    0.58635    1.000
    Si3424   Si       0.54855    0.94516    0.50884    1.000
    N3425    N        0.52782    0.92416    0.54058    1.000
    N3426    N        0.53093    0.98702    0.51180    1.000
    N3427    N        0.56615    0.79199    0.63464    1.000
    Si3428   Si       0.54225    0.84755    0.73266    1.000
    N3429    N        0.56604    0.85761    0.69602    1.000
    Si3430   Si       0.55627    0.78217    0.67621    1.000
    Si3431   Si       0.54636    0.87577    0.66246    1.000
    N3432    N        0.57235    0.86034    0.63142    1.000
    Si3433   Si       0.53587    0.94745    0.70309    1.000
    N3434    N        0.54106    0.98844    0.68674    1.000
    N3435    N        0.55107    0.91738    0.67290    1.000
    N3436    N        0.55835    0.93543    0.73859    1.000
    N3437    N        0.52832    0.78188    0.81229    1.000
    Si3438   Si       0.56055    0.84566    0.86681    1.000
    N3439    N        0.52762    0.84823    0.84043    1.000
    N3440    N        0.57105    0.86620    0.76167    1.000
    Si3441   Si       0.52407    0.77416    0.77085    1.000
    Si3442   Si       0.57215    0.79037    0.81508    1.000
    N3443    N        0.52760    0.80923    0.74362    1.000
    Si3444   Si       0.54547    0.90137    0.76042    1.000
    Si3445   Si       0.54636    0.94489    0.82212    1.000
    N3446    N        0.53164    0.90856    0.80253    1.000
    N3447    N        0.55761    0.93260    0.86327    1.000
    N3448    N        0.52258    0.98231    0.83223    1.000
    N3449    N        0.55078    0.79119    0.95673    1.000
    N3450    N        0.54771    0.84084    0.90903    1.000
    N3451    N        0.55821    0.85516    0.97946    1.000
    Si3452   Si       0.56948    0.82950    0.94661    1.000
    Si3453   Si       0.54435    0.89681    0.97196    1.000
    N3454    N        0.54203    0.98488    0.90839    1.000
    Si3455   Si       0.53358    0.94395    0.89744    1.000
    N3456    N        0.53732    0.91670    0.93456    1.000
    Si3457   Si       0.57296    0.96431    0.96992    1.000
    N3458    N        0.52934    0.97388    0.97206    1.000
    N3459    N        0.57483    0.92330    0.99025    1.000
    Si3460   Si       0.60511    0.06392    0.07155    1.000
    N3461    N        0.61810    0.03759    0.03961    1.000
    Si3462   Si       0.59272    0.12461    0.03173    1.000
    N3463    N        0.63060    0.10636    0.01877    1.000
    N3464    N        0.60527    0.15361    0.06184    1.000
    N3465    N        0.60670    0.21879    0.04300    1.000
    Si3466   Si       0.62371    0.24638    0.01315    1.000
    Si3467   Si       0.63384    0.18343    0.04991    1.000
    Si3468   Si       0.58076    0.15239    0.09848    1.000
    N3469    N        0.59000    0.04059    0.16591    1.000
    N3470    N        0.59268    0.02466    0.24537    1.000
    Si3471   Si       0.63800    0.03030    0.24018    1.000
    N3472    N        0.63230    0.07295    0.22572    1.000
    Si3473   Si       0.63444    0.04127    0.16472    1.000
    N3474    N        0.63051    0.14162    0.20086    1.000
    N3475    N        0.60183    0.24154    0.14511    1.000
    N3476    N        0.60897    0.13614    0.13041    1.000
    N3477    N        0.58143    0.24620    0.23980    1.000
    Si3478   Si       0.61571    0.16132    0.16486    1.000
    N3479    N        0.57749    0.18164    0.17018    1.000
    Si3480   Si       0.61702    0.08901    0.26248    1.000
    N3481    N        0.62012    0.05744    0.29448    1.000
    N3482    N        0.60704    0.06218    0.36927    1.000
    Si3483   Si       0.57989    0.03296    0.28938    1.000
    N3484    N        0.58001    0.10985    0.25743    1.000
    Si3485   Si       0.63583    0.05649    0.33674    1.000
    N3486    N        0.61447    0.14768    0.32706    1.000
    Si3487   Si       0.60166    0.21851    0.26686    1.000
    N3488    N        0.59376    0.21854    0.30855    1.000
    Si3489   Si       0.62009    0.24314    0.33752    1.000
    N3490    N        0.60168    0.17667    0.25374    1.000
    N3491    N        0.59182    0.08614    0.44353    1.000
    Si3492   Si       0.61726    0.06676    0.41018    1.000
    N3493    N        0.61682    0.02687    0.43133    1.000
    Si3494   Si       0.59848    0.05096    0.47345    1.000
    Si3495   Si       0.59103    0.12883    0.44663    1.000
    N3496    N        0.59410    0.01331    0.49586    1.000
    N3497    N        0.63685    0.06522    0.49002    1.000
    N3498    N        0.58453    0.15900    0.41449    1.000
    Si3499   Si       0.63330    0.24534    0.41115    1.000
    N3500    N        0.62725    0.15017    0.45847    1.000
    N3501    N        0.59227    0.20214    0.48854    1.000
    N3502    N        0.60180    0.24523    0.37782    1.000
    Si3503   Si       0.63278    0.19013    0.47720    1.000
    N3504    N        0.63463    0.21045    0.43788    1.000
    Si3505   Si       0.62645    0.17243    0.41926    1.000
    N3506    N        0.61437    0.07643    0.55670    1.000
    Si3507   Si       0.62703    0.08101    0.59753    1.000
    N3508    N        0.59080    0.08064    0.62493    1.000
    N3509    N        0.59884    0.14391    0.60149    1.000
    Si3510   Si       0.58727    0.17200    0.56922    1.000
    N3511    N        0.62793    0.17681    0.55949    1.000
    Si3512   Si       0.58675    0.24525    0.49562    1.000
    N3513    N        0.60872    0.02939    0.67823    1.000
    Si3514   Si       0.57841    0.04906    0.65260    1.000
    N3515    N        0.58178    0.10528    0.72091    1.000
    N3516    N        0.58160    0.20103    0.65115    1.000
    Si3517   Si       0.62226    0.18826    0.65587    1.000
    Si3518   Si       0.59664    0.14668    0.71882    1.000
    N3519    N        0.61542    0.15515    0.68317    1.000
    Si3520   Si       0.58921    0.25173    0.73382    1.000
    Si3521   Si       0.62300    0.26080    0.66981    1.000
    N3522    N        0.59838    0.08772    0.78615    1.000
    N3523    N        0.62226    0.05710    0.84831    1.000
    Si3524   Si       0.63074    0.08580    0.81809    1.000
    Si3525   Si       0.58402    0.03733    0.84368    1.000
    Si3526   Si       0.61399    0.09818    0.74749    1.000
    N3527    N        0.59318    0.21734    0.75956    1.000
    Si3528   Si       0.62356    0.21258    0.79104    1.000
    N3529    N        0.60952    0.18883    0.82550    1.000
    Si3530   Si       0.63509    0.16546    0.85373    1.000
    N3531    N        0.63107    0.13861    0.74857    1.000
    N3532    N        0.62242    0.25526    0.80296    1.000
    Si3533   Si       0.61521    0.01649    0.95798    1.000
    N3534    N        0.62040    0.05695    0.97291    1.000
    Si3535   Si       0.61818    0.08890    0.94292    1.000
    N3536    N        0.59958    0.02815    0.91613    1.000
    Si3537   Si       0.63225    0.04055    0.88868    1.000
    N3538    N        0.63818    0.12821    0.95350    1.000
    Si3539   Si       0.60390    0.25610    0.93183    1.000
    N3540    N        0.62334    0.16477    0.89695    1.000
    N3541    N        0.60875    0.24028    0.97335    1.000
    Si3542   Si       0.58425    0.18398    0.90426    1.000
    N3543    N        0.61888    0.28513    0.02554    1.000
    N3544    N        0.61143    0.34818    0.02094    1.000
    Si3545   Si       0.60175    0.33377    0.10343    1.000
    N3546    N        0.61355    0.37276    0.08701    1.000
    Si3547   Si       0.58847    0.31215    0.03069    1.000
    N3548    N        0.62206    0.29675    0.11599    1.000
    Si3549   Si       0.63383    0.37127    0.04942    1.000
    N3550    N        0.62567    0.47418    0.04300    1.000
    Si3551   Si       0.60321    0.43602    0.02756    1.000
    Si3552   Si       0.59630    0.41172    0.09469    1.000
    N3553    N        0.62433    0.43955    0.10835    1.000
    Si3554   Si       0.59517    0.50444    0.03426    1.000
    N3555    N        0.57942    0.47161    0.99993    1.000
    N3556    N        0.63755    0.41243    0.03982    1.000
    N3557    N        0.60710    0.29370    0.18516    1.000
    N3558    N        0.60493    0.35460    0.21805    1.000
    Si3559   Si       0.59234    0.28372    0.14336    1.000
    N3560    N        0.59004    0.34348    0.14403    1.000
    Si3561   Si       0.61582    0.33593    0.17957    1.000
    Si3562   Si       0.61644    0.26415    0.21950    1.000
    N3563    N        0.59664    0.41579    0.24530    1.000
    Si3564   Si       0.62198    0.39344    0.21657    1.000
    N3565    N        0.58566    0.46451    0.15860    1.000
    N3566    N        0.63259    0.41266    0.17800    1.000
    Si3567   Si       0.62292    0.44487    0.15130    1.000
    N3568    N        0.60126    0.34207    0.28840    1.000
    Si3569   Si       0.61939    0.32206    0.32554    1.000
    N3570    N        0.63104    0.28044    0.31665    1.000
    N3571    N        0.57962    0.31525    0.34218    1.000
    N3572    N        0.62794    0.29504    0.24939    1.000
    Si3573   Si       0.59650    0.32410    0.24885    1.000
    Si3574   Si       0.59494    0.38587    0.27772    1.000
    Si3575   Si       0.62355    0.43835    0.27372    1.000
    Si3576   Si       0.60001    0.41487    0.34670    1.000
    N3577    N        0.60368    0.47293    0.28534    1.000
    N3578    N        0.61745    0.41097    0.30708    1.000
    Si3579   Si       0.60566    0.48186    0.32782    1.000
    N3580    N        0.57737    0.45298    0.34712    1.000
    Si3581   Si       0.58937    0.50304    0.25875    1.000
    Si3582   Si       0.58456    0.30575    0.41937    1.000
    N3583    N        0.62648    0.34087    0.46561    1.000
    N3584    N        0.61656    0.27940    0.43248    1.000
    N3585    N        0.60399    0.34220    0.40004    1.000
    Si3586   Si       0.58767    0.36114    0.45874    1.000
    Si3587   Si       0.63690    0.29581    0.46790    1.000
    N3588    N        0.62724    0.40710    0.37996    1.000
    Si3589   Si       0.59404    0.49647    0.49591    1.000
    Si3590   Si       0.59496    0.49992    0.41789    1.000
    N3591    N        0.59860    0.45315    0.49432    1.000
    N3592    N        0.57767    0.39150    0.42696    1.000
    N3593    N        0.59708    0.45614    0.41917    1.000
    Si3594   Si       0.63435    0.42977    0.41997    1.000
    N3595    N        0.61875    0.28750    0.56475    1.000
    Si3596   Si       0.59994    0.29028    0.60310    1.000
    N3597    N        0.62410    0.26992    0.50019    1.000
    N3598    N        0.61753    0.38804    0.59900    1.000
    N3599    N        0.62086    0.40576    0.53710    1.000
    Si3600   Si       0.58969    0.39864    0.56860    1.000
    Si3601   Si       0.63311    0.42623    0.50129    1.000
    N3602    N        0.60995    0.32591    0.62339    1.000
    Si3603   Si       0.58317    0.34366    0.65502    1.000
    Si3604   Si       0.61041    0.36731    0.72344    1.000
    N3605    N        0.61188    0.34092    0.68728    1.000
    N3606    N        0.61633    0.27561    0.71098    1.000
    N3607    N        0.59907    0.26073    0.63255    1.000
    N3608    N        0.57781    0.39305    0.73673    1.000
    Si3609   Si       0.61750    0.49204    0.70127    1.000
    Si3610   Si       0.57985    0.43497    0.74598    1.000
    N3611    N        0.59466    0.45413    0.70783    1.000
    Si3612   Si       0.59792    0.41631    0.63001    1.000
    Si3613   Si       0.63207    0.43295    0.69515    1.000
    N3614    N        0.57463    0.45430    0.64265    1.000
    N3615    N        0.59830    0.35001    0.82155    1.000
    Si3616   Si       0.63151    0.35002    0.79412    1.000
    N3617    N        0.62303    0.33696    0.75384    1.000
    Si3618   Si       0.60971    0.36844    0.86097    1.000
    Si3619   Si       0.58088    0.26743    0.80608    1.000
    Si3620   Si       0.59599    0.43139    0.81506    1.000
    N3621    N        0.61611    0.43974    0.77579    1.000
    N3622    N        0.60934    0.41025    0.84922    1.000
    N3623    N        0.59935    0.47308    0.82739    1.000
    Si3624   Si       0.62967    0.47919    0.79527    1.000
    N3625    N        0.62485    0.32942    0.91851    1.000
    Si3626   Si       0.60830    0.37135    0.98202    1.000
    Si3627   Si       0.58077    0.33005    0.92268    1.000
    Si3628   Si       0.61158    0.43667    0.88501    1.000
    Si3629   Si       0.58949    0.44369    0.96472    1.000
    N3630    N        0.63005    0.45659    0.95395    1.000
    N3631    N        0.59501    0.41108    0.99210    1.000
    N3632    N        0.62234    0.40464    0.91412    1.000
    N3633    N        0.62698    0.58576    0.09194    1.000
    N3634    N        0.62464    0.53920    0.04032    1.000
    Si3635   Si       0.58480    0.58684    0.10785    1.000
    N3636    N        0.62247    0.64545    0.05195    1.000
    Si3637   Si       0.61004    0.73042    0.10350    1.000
    N3638    N        0.58972    0.74248    0.06584    1.000
    N3639    N        0.62440    0.70740    0.01589    1.000
    Si3640   Si       0.58248    0.71485    0.03368    1.000
    Si3641   Si       0.57861    0.64016    0.05465    1.000
    N3642    N        0.59056    0.53991    0.12996    1.000
    Si3643   Si       0.62913    0.51641    0.14532    1.000
    N3644    N        0.60649    0.52546    0.18709    1.000
    Si3645   Si       0.58917    0.62551    0.19277    1.000
    N3646    N        0.63131    0.62813    0.18770    1.000
    N3647    N        0.58753    0.73057    0.14312    1.000
    N3648    N        0.58291    0.71305    0.21480    1.000
    Si3649   Si       0.59194    0.69645    0.17438    1.000
    N3650    N        0.60022    0.58780    0.27669    1.000
    N3651    N        0.61160    0.52053    0.34163    1.000
    Si3652   Si       0.58851    0.61148    0.30999    1.000
    Si3653   Si       0.58982    0.55258    0.36388    1.000
    N3654    N        0.62418    0.52725    0.25362    1.000
    Si3655   Si       0.63731    0.56782    0.26429    1.000
    N3656    N        0.62465    0.63344    0.31953    1.000
    N3657    N        0.60138    0.68516    0.27756    1.000
    Si3658   Si       0.60103    0.72750    0.31542    1.000
    N3659    N        0.61007    0.75207    0.28038    1.000
    Si3660   Si       0.60853    0.71786    0.25024    1.000
    N3661    N        0.57701    0.69933    0.34258    1.000
    Si3662   Si       0.63488    0.67107    0.30132    1.000
    N3663    N        0.63729    0.51086    0.40913    1.000
    N3664    N        0.62831    0.57122    0.37608    1.000
    Si3665   Si       0.60026    0.56276    0.45710    1.000
    N3666    N        0.59154    0.51874    0.45810    1.000
    N3667    N        0.58736    0.59006    0.42653    1.000
    Si3668   Si       0.61728    0.60610    0.39997    1.000
    N3669    N        0.63427    0.62304    0.48773    1.000
    Si3670   Si       0.59187    0.61610    0.49368    1.000
    Si3671   Si       0.60177    0.75899    0.38993    1.000
    N3672    N        0.63329    0.68225    0.44922    1.000
    N3673    N        0.60519    0.64832    0.39318    1.000
    N3674    N        0.61259    0.71596    0.39925    1.000
    Si3675   Si       0.61380    0.72126    0.44638    1.000
    Si3676   Si       0.58566    0.68543    0.38367    1.000
    Si3677   Si       0.59810    0.58746    0.55695    1.000
    N3678    N        0.59393    0.62785    0.53927    1.000
    N3679    N        0.62327    0.51515    0.59429    1.000
    Si3680   Si       0.58185    0.51713    0.58542    1.000
    N3681    N        0.58271    0.59922    0.59804    1.000
    N3682    N        0.62378    0.50939    0.52566    1.000
    N3683    N        0.58369    0.57294    0.49650    1.000
    N3684    N        0.63338    0.74544    0.55427    1.000
    Si3685   Si       0.62865    0.65490    0.54792    1.000
    N3686    N        0.59667    0.68071    0.56980    1.000
    Si3687   Si       0.59600    0.72450    0.56368    1.000
    Si3688   Si       0.60772    0.68416    0.61321    1.000
    N3689    N        0.63025    0.71922    0.61056    1.000
    N3690    N        0.61533    0.51050    0.66187    1.000
    N3691    N        0.59600    0.51852    0.72849    1.000
    N3692    N        0.61850    0.58549    0.65537    1.000
    Si3693   Si       0.59458    0.61723    0.63494    1.000
    Si3694   Si       0.59255    0.54930    0.65585    1.000
    N3695    N        0.62388    0.64966    0.63364    1.000
    Si3696   Si       0.57934    0.65582    0.73679    1.000
    Si3697   Si       0.57725    0.71597    0.67791    1.000
    N3698    N        0.60710    0.74569    0.66496    1.000
    Si3699   Si       0.60445    0.75591    0.62287    1.000
    N3700    N        0.58901    0.69559    0.71431    1.000
    N3701    N        0.59371    0.56970    0.85379    1.000
    Si3702   Si       0.61317    0.60407    0.78443    1.000
    N3703    N        0.58797    0.57109    0.77505    1.000
    Si3704   Si       0.61879    0.54436    0.75564    1.000
    N3705    N        0.60008    0.63029    0.81508    1.000
    Si3706   Si       0.58396    0.61061    0.84918    1.000
    N3707    N        0.61680    0.63437    0.75277    1.000
    Si3708   Si       0.61616    0.67151    0.81588    1.000
    Si3709   Si       0.61322    0.73644    0.85005    1.000
    N3710    N        0.59994    0.69556    0.78312    1.000
    N3711    N        0.59892    0.69267    0.85099    1.000
    Si3712   Si       0.61997    0.70681    0.74477    1.000
    N3713    N        0.57727    0.75280    0.83657    1.000
    N3714    N        0.62870    0.74906    0.74416    1.000
    Si3715   Si       0.63386    0.56026    0.86976    1.000
    Si3716   Si       0.58522    0.61752    0.92605    1.000
    N3717    N        0.62203    0.54393    0.90946    1.000
    N3718    N        0.62268    0.57872    0.97474    1.000
    Si3719   Si       0.61041    0.54371    0.95338    1.000
    N3720    N        0.62632    0.62800    0.92742    1.000
    N3721    N        0.57551    0.51772    0.94482    1.000
    Si3722   Si       0.57835    0.53922    0.90631    1.000
    Si3723   Si       0.63339    0.71353    0.90853    1.000
    N3724    N        0.62843    0.75267    0.88763    1.000
    N3725    N        0.59879    0.68683    0.91371    1.000
    Si3726   Si       0.61631    0.66864    0.94882    1.000
    N3727    N        0.60672    0.86300    0.02603    1.000
    Si3728   Si       0.59111    0.78565    0.05749    1.000
    N3729    N        0.63329    0.79620    0.05356    1.000
    Si3730   Si       0.60977    0.90317    0.00839    1.000
    N3731    N        0.62492    0.92457    0.04170    1.000
    Si3732   Si       0.61638    0.99489    0.02933    1.000
    N3733    N        0.59787    0.97734    0.06823    1.000
    Si3734   Si       0.59160    0.93429    0.07234    1.000
    N3735    N        0.61317    0.90788    0.09807    1.000
    Si3736   Si       0.59898    0.83571    0.17108    1.000
    Si3737   Si       0.61301    0.76787    0.15204    1.000
    N3738    N        0.58469    0.79977    0.15358    1.000
    N3739    N        0.58002    0.83163    0.21080    1.000
    N3740    N        0.59403    0.87822    0.16314    1.000
    Si3741   Si       0.60676    0.84514    0.24084    1.000
    N3742    N        0.62700    0.88214    0.22865    1.000
    N3743    N        0.61071    0.95283    0.15702    1.000
    Si3744   Si       0.61168    0.92247    0.23677    1.000
    Si3745   Si       0.61640    0.91004    0.14088    1.000
    N3746    N        0.60978    0.81988    0.31402    1.000
    Si3747   Si       0.59973    0.86106    0.31022    1.000
    N3748    N        0.57998    0.85758    0.27246    1.000
    Si3749   Si       0.63047    0.79141    0.28757    1.000
    N3750    N        0.59699    0.76046    0.34577    1.000
    N3751    N        0.63214    0.88659    0.32532    1.000
    N3752    N        0.63309    0.81011    0.24874    1.000
    Si3753   Si       0.57618    0.79881    0.33230    1.000
    N3754    N        0.59540    0.99322    0.30501    1.000
    N3755    N        0.60643    0.93169    0.27868    1.000
    N3756    N        0.58817    0.83401    0.45701    1.000
    Si3757   Si       0.60826    0.86854    0.47207    1.000
    N3758    N        0.60861    0.85808    0.39368    1.000
    N3759    N        0.62737    0.78879    0.40875    1.000
    Si3760   Si       0.61901    0.82949    0.42502    1.000
    N3761    N        0.59106    0.97824    0.37919    1.000
    N3762    N        0.60094    0.90528    0.45112    1.000
    Si3763   Si       0.58508    0.00003    0.41645    1.000
    N3764    N        0.63118    0.91821    0.39091    1.000
    N3765    N        0.59089    0.96896    0.44579    1.000
    Si3766   Si       0.63314    0.95904    0.37590    1.000
    Si3767   Si       0.61029    0.97223    0.48452    1.000
    N3768    N        0.60507    0.80829    0.54293    1.000
    N3769    N        0.62125    0.79139    0.60523    1.000
    Si3770   Si       0.59264    0.84853    0.53788    1.000
    N3771    N        0.61768    0.87427    0.51261    1.000
    N3772    N        0.62962    0.85491    0.60760    1.000
    N3773    N        0.58318    0.88411    0.56291    1.000
    Si3774   Si       0.59859    0.88602    0.60448    1.000
    N3775    N        0.61565    0.98277    0.58941    1.000
    N3776    N        0.59228    0.94415    0.51414    1.000
    Si3777   Si       0.60782    0.91173    0.53453    1.000
    Si3778   Si       0.58113    0.97195    0.61138    1.000
    N3779    N        0.59458    0.92941    0.62010    1.000
    Si3780   Si       0.63415    0.94406    0.59790    1.000
    Si3781   Si       0.60177    0.82578    0.62854    1.000
    N3782    N        0.62193    0.81937    0.66697    1.000
    Si3783   Si       0.60945    0.85560    0.68867    1.000
    Si3784   Si       0.62475    0.77919    0.68677    1.000
    N3785    N        0.62664    0.84320    0.72826    1.000
    N3786    N        0.58545    0.78437    0.70842    1.000
    N3787    N        0.62164    0.89271    0.66833    1.000
    Si3788   Si       0.59288    0.92435    0.66353    1.000
    Si3789   Si       0.58358    0.99752    0.69296    1.000
    N3790    N        0.60474    0.95938    0.68450    1.000
    N3791    N        0.58446    0.99880    0.73629    1.000
    Si3792   Si       0.60613    0.84065    0.76631    1.000
    Si3793   Si       0.61982    0.83983    0.84428    1.000
    N3794    N        0.59079    0.80044    0.77672    1.000
    N3795    N        0.59435    0.87310    0.85902    1.000
    N3796    N        0.58512    0.81399    0.84737    1.000
    N3797    N        0.62867    0.84993    0.80160    1.000
    Si3798   Si       0.58918    0.76823    0.74807    1.000
    Si3799   Si       0.61019    0.96859    0.83028    1.000
    Si3800   Si       0.58797    0.96085    0.75727    1.000
    N3801    N        0.59522    0.99781    0.85826    1.000
    N3802    N        0.62423    0.93676    0.85617    1.000
    N3803    N        0.58085    0.95879    0.79938    1.000
    N3804    N        0.63012    0.95153    0.75160    1.000
    N3805    N        0.61810    0.76810    0.97942    1.000
    N3806    N        0.61530    0.83049    0.94505    1.000
    Si3807   Si       0.63331    0.85479    0.91405    1.000
    Si3808   Si       0.57520    0.77222    0.98731    1.000
    Si3809   Si       0.58434    0.99093    0.90039    1.000
    N3810    N        0.59649    0.99462    0.99146    1.000
    Si3811   Si       0.63136    0.92923    0.93722    1.000
    Si3812   Si       0.59794    0.91190    0.87827    1.000
    N3813    N        0.59701    0.96160    0.93312    1.000
    N3814    N        0.61693    0.89711    0.91493    1.000
    Si3815   Si       0.67351    0.05332    0.10232    1.000
    N3816    N        0.67898    0.05413    0.00668    1.000
    Si3817   Si       0.63758    0.06470    0.01191    1.000
    N3818    N        0.69082    0.03252    0.06993    1.000
    N3819    N        0.63991    0.08027    0.09170    1.000
    N3820    N        0.67263    0.13757    0.11221    1.000
    N3821    N        0.66694    0.23532    0.01304    1.000
    N3822    N        0.66345    0.20304    0.07495    1.000
    Si3823   Si       0.68298    0.23752    0.05650    1.000
    N3824    N        0.65216    0.17297    0.01044    1.000
    Si3825   Si       0.67115    0.17900    0.11331    1.000
    Si3826   Si       0.64049    0.10773    0.12457    1.000
    Si3827   Si       0.65079    0.10261    0.19894    1.000
    N3828    N        0.66153    0.02491    0.13298    1.000
    N3829    N        0.64725    0.08356    0.16024    1.000
    N3830    N        0.69023    0.10961    0.21299    1.000
    N3831    N        0.64211    0.01372    0.19738    1.000
    Si3832   Si       0.66725    0.22209    0.23037    1.000
    N3833    N        0.67323    0.25144    0.13352    1.000
    Si3834   Si       0.63760    0.15493    0.24053    1.000
    Si3835   Si       0.64415    0.23178    0.15728    1.000
    N3836    N        0.64392    0.23890    0.19942    1.000
    N3837    N        0.64680    0.18919    0.14802    1.000
    N3838    N        0.67337    0.18024    0.23885    1.000
    N3839    N        0.66097    0.09061    0.34077    1.000
    N3840    N        0.65858    0.01981    0.33733    1.000
    N3841    N        0.64824    0.12045    0.26931    1.000
    Si3842   Si       0.64907    0.12383    0.31466    1.000
    Si3843   Si       0.68621    0.10269    0.25751    1.000
    N3844    N        0.68505    0.06060    0.26235    1.000
    N3845    N        0.65398    0.21644    0.34547    1.000
    N3846    N        0.67672    0.15717    0.32332    1.000
    Si3847   Si       0.64472    0.17505    0.34496    1.000
    N3848    N        0.64353    0.23445    0.26452    1.000
    Si3849   Si       0.69036    0.22919    0.36577    1.000
    Si3850   Si       0.68355    0.08870    0.37952    1.000
    N3851    N        0.67991    0.03716    0.44670    1.000
    Si3852   Si       0.66333    0.07649    0.45436    1.000
    N3853    N        0.65529    0.08912    0.41271    1.000
    N3854    N        0.69314    0.09854    0.47674    1.000
    N3855    N        0.69352    0.15961    0.44228    1.000
    Si3856   Si       0.69166    0.15767    0.39985    1.000
    N3857    N        0.64934    0.16203    0.38598    1.000
    N3858    N        0.67384    0.25396    0.39854    1.000
    N3859    N        0.65843    0.11157    0.59439    1.000
    N3860    N        0.65009    0.04515    0.60551    1.000
    Si3861   Si       0.64814    0.05975    0.53038    1.000
    N3862    N        0.64871    0.01907    0.54040    1.000
    N3863    N        0.68728    0.07563    0.54238    1.000
    Si3864   Si       0.64855    0.00906    0.58128    1.000
    Si3865   Si       0.64123    0.15101    0.59545    1.000
    Si3866   Si       0.66565    0.19896    0.54561    1.000
    N3867    N        0.67238    0.24114    0.54828    1.000
    N3868    N        0.66698    0.19218    0.50224    1.000
    N3869    N        0.69474    0.18472    0.57520    1.000
    N3870    N        0.67527    0.05911    0.67267    1.000
    Si3871   Si       0.68212    0.03997    0.63509    1.000
    Si3872   Si       0.64678    0.04055    0.70120    1.000
    N3873    N        0.64277    0.06811    0.73414    1.000
    N3874    N        0.65584    0.17614    0.62827    1.000
    N3875    N        0.67881    0.17431    0.71456    1.000
    N3876    N        0.64395    0.22110    0.67436    1.000
    Si3877   Si       0.68309    0.20964    0.69058    1.000
    N3878    N        0.67199    0.08101    0.79866    1.000
    Si3879   Si       0.68503    0.12210    0.81168    1.000
    N3880    N        0.64474    0.12762    0.83130    1.000
    Si3881   Si       0.68083    0.07561    0.75369    1.000
    N3882    N        0.66295    0.19740    0.78063    1.000
    Si3883   Si       0.66687    0.16390    0.75446    1.000
    N3884    N        0.67214    0.18562    0.86074    1.000
    N3885    N        0.68928    0.25424    0.82228    1.000
    N3886    N        0.64453    0.07505    0.91128    1.000
    Si3887   Si       0.68548    0.08676    0.91238    1.000
    N3888    N        0.69362    0.12835    0.91732    1.000
    Si3889   Si       0.67600    0.01069    0.99275    1.000
    N3890    N        0.66849    0.19481    0.94332    1.000
    Si3891   Si       0.65084    0.13428    0.99324    1.000
    Si3892   Si       0.65839    0.15615    0.92462    1.000
    Si3893   Si       0.67616    0.23236    0.92243    1.000
    Si3894   Si       0.67664    0.20272    0.98542    1.000
    N3895    N        0.66839    0.27671    0.06759    1.000
    N3896    N        0.66758    0.34517    0.05387    1.000
    Si3897   Si       0.65689    0.30424    0.03621    1.000
    Si3898   Si       0.66323    0.28679    0.11035    1.000
    N3899    N        0.68859    0.31968    0.11709    1.000
    N3900    N        0.67449    0.30432    0.99693    1.000
    Si3901   Si       0.67141    0.43649    0.03350    1.000
    N3902    N        0.68351    0.45187    0.07229    1.000
    Si3903   Si       0.64406    0.47055    0.08358    1.000
    N3904    N        0.68299    0.46506    0.00290    1.000
    N3905    N        0.65779    0.34539    0.17641    1.000
    N3906    N        0.69180    0.43783    0.20048    1.000
    Si3907   Si       0.67447    0.39657    0.18434    1.000
    Si3908   Si       0.68103    0.47655    0.18626    1.000
    N3909    N        0.64861    0.47820    0.15913    1.000
    N3910    N        0.67114    0.50426    0.21693    1.000
    Si3911   Si       0.68790    0.42514    0.24317    1.000
    N3912    N        0.66262    0.39195    0.23231    1.000
    Si3913   Si       0.65244    0.27504    0.28023    1.000
    N3914    N        0.64900    0.34569    0.34623    1.000
    Si3915   Si       0.68644    0.36344    0.33689    1.000
    N3916    N        0.69531    0.34825    0.29658    1.000
    Si3917   Si       0.67916    0.49029    0.32785    1.000
    N3918    N        0.64686    0.46360    0.33929    1.000
    Si3919   Si       0.66028    0.43107    0.36379    1.000
    N3920    N        0.66193    0.45361    0.26052    1.000
    Si3921   Si       0.65755    0.49794    0.25733    1.000
    N3922    N        0.68716    0.40650    0.34047    1.000
    N3923    N        0.67936    0.29034    0.45959    1.000
    Si3924   Si       0.66033    0.36786    0.45575    1.000
    N3925    N        0.67095    0.36312    0.41275    1.000
    Si3926   Si       0.63827    0.36234    0.38410    1.000
    N3927    N        0.69304    0.35689    0.48225    1.000
    N3928    N        0.64229    0.40917    0.45755    1.000
    N3929    N        0.67180    0.50473    0.47630    1.000
    N3930    N        0.67245    0.44380    0.40450    1.000
    N3931    N        0.66424    0.34943    0.57417    1.000
    N3932    N        0.67643    0.30469    0.52584    1.000
    Si3933   Si       0.64687    0.27353    0.53531    1.000
    Si3934   Si       0.64073    0.35307    0.61085    1.000
    Si3935   Si       0.65566    0.39120    0.56160    1.000
    Si3936   Si       0.66328    0.49411    0.51664    1.000
    N3937    N        0.67034    0.42257    0.58655    1.000
    N3938    N        0.66704    0.45154    0.51584    1.000
    Si3939   Si       0.69078    0.43901    0.55085    1.000
    N3940    N        0.69225    0.39599    0.53582    1.000
    Si3941   Si       0.64976    0.32607    0.67190    1.000
    N3942    N        0.65927    0.28635    0.65559    1.000
    N3943    N        0.67073    0.32634    0.70972    1.000
    N3944    N        0.67051    0.35180    0.64335    1.000
    Si3945   Si       0.64054    0.30351    0.73339    1.000
    Si3946   Si       0.69454    0.26234    0.65351    1.000
    Si3947   Si       0.64674    0.50782    0.63248    1.000
    Si3948   Si       0.69192    0.46419    0.72350    1.000
    Si3949   Si       0.67108    0.43011    0.62933    1.000
    N3950    N        0.63913    0.40058    0.72149    1.000
    N3951    N        0.65464    0.46901    0.70471    1.000
    N3952    N        0.67640    0.47500    0.62644    1.000
    N3953    N        0.63415    0.42591    0.65249    1.000
    Si3954   Si       0.66043    0.27746    0.80018    1.000
    Si3955   Si       0.67618    0.33352    0.84812    1.000
    N3956    N        0.65726    0.31905    0.81232    1.000
    N3957    N        0.66686    0.27905    0.75754    1.000
    N3958    N        0.65192    0.36228    0.87026    1.000
    N3959    N        0.65787    0.38520    0.79192    1.000
    N3960    N        0.66649    0.46803    0.81665    1.000
    Si3961   Si       0.66128    0.48829    0.85693    1.000
    Si3962   Si       0.64922    0.41635    0.76233    1.000
    N3963    N        0.68394    0.44265    0.75854    1.000
    N3964    N        0.67670    0.29921    0.87211    1.000
    N3965    N        0.64810    0.36954    0.96736    1.000
    Si3966   Si       0.65856    0.30266    0.91010    1.000
    Si3967   Si       0.67786    0.33985    0.97436    1.000
    N3968    N        0.68601    0.33042    0.93032    1.000
    Si3969   Si       0.65109    0.37074    0.91579    1.000
    N3970    N        0.64367    0.26032    0.91693    1.000
    Si3971   Si       0.69361    0.26607    0.99304    1.000
    Si3972   Si       0.65771    0.43906    0.92496    1.000
    N3973    N        0.64616    0.45896    0.88667    1.000
    N3974    N        0.69082    0.46901    0.93924    1.000
    N3975    N        0.68399    0.40280    0.91808    1.000
    Si3976   Si       0.66000    0.48313    0.96919    1.000
    N3977    N        0.68625    0.54865    0.07288    1.000
    N3978    N        0.68319    0.61790    0.06244    1.000
    N3979    N        0.68096    0.57026    0.00757    1.000
    Si3980   Si       0.64266    0.62520    0.08551    1.000
    Si3981   Si       0.64239    0.55074    0.00299    1.000
    Si3982   Si       0.64164    0.54598    0.07945    1.000
    N3983    N        0.64052    0.50930    0.10257    1.000
    N3984    N        0.68631    0.73839    0.06827    1.000
    N3985    N        0.68773    0.67830    0.02515    1.000
    Si3986   Si       0.67986    0.70952    0.10232    1.000
    Si3987   Si       0.64153    0.66841    0.02187    1.000
    N3988    N        0.63829    0.69986    0.09898    1.000
    N3989    N        0.66299    0.57065    0.22779    1.000
    Si3990   Si       0.64611    0.53680    0.20463    1.000
    N3991    N        0.66175    0.54340    0.16125    1.000
    Si3992   Si       0.65341    0.72590    0.19558    1.000
    N3993    N        0.65697    0.63538    0.12416    1.000
    N3994    N        0.65139    0.71319    0.23753    1.000
    Si3995   Si       0.69530    0.71021    0.23703    1.000
    N3996    N        0.63473    0.69145    0.17362    1.000
    Si3997   Si       0.65457    0.65490    0.16520    1.000
    N3998    N        0.66940    0.57757    0.29318    1.000
    Si3999   Si       0.66630    0.61673    0.31462    1.000
    N4000    N        0.68248    0.51987    0.35992    1.000
    N4001    N        0.67670    0.51380    0.29321    1.000
    N4002    N        0.69207    0.60879    0.34857    1.000
    Si4003   Si       0.64407    0.53111    0.37210    1.000
    N4004    N        0.67380    0.65258    0.28661    1.000
    Si4005   Si       0.67706    0.73460    0.30494    1.000
    N4006    N        0.64452    0.70972    0.32399    1.000
    Si4007   Si       0.66284    0.71257    0.36511    1.000
    Si4008   Si       0.66009    0.52852    0.44189    1.000
    Si4009   Si       0.66741    0.60090    0.46857    1.000
    N4010    N        0.65818    0.62172    0.41527    1.000
    N4011    N        0.64300    0.56629    0.45460    1.000
    N4012    N        0.67741    0.74263    0.39268    1.000
    N4013    N        0.67311    0.67417    0.38265    1.000
    Si4014   Si       0.68922    0.63253    0.38606    1.000
    N4015    N        0.64363    0.75035    0.46179    1.000
    Si4016   Si       0.65056    0.66353    0.48301    1.000
    Si4017   Si       0.64237    0.66392    0.41161    1.000
    N4018    N        0.68848    0.65115    0.46781    1.000
    Si4019   Si       0.67463    0.59538    0.54903    1.000
    N4020    N        0.68125    0.51763    0.54819    1.000
    N4021    N        0.68709    0.58455    0.51029    1.000
    Si4022   Si       0.64221    0.53213    0.55897    1.000
    N4023    N        0.66713    0.63668    0.55673    1.000
    N4024    N        0.63938    0.57465    0.56089    1.000
    Si4025   Si       0.66110    0.71649    0.53906    1.000
    N4026    N        0.68452    0.70221    0.57365    1.000
    Si4027   Si       0.67358    0.71833    0.61215    1.000
    N4028    N        0.64123    0.68487    0.51882    1.000
    N4029    N        0.69386    0.73447    0.51630    1.000
    N4030    N        0.66966    0.54205    0.64341    1.000
    N4031    N        0.67901    0.61158    0.63392    1.000
    Si4032   Si       0.65990    0.58062    0.66250    1.000
    Si4033   Si       0.68896    0.58461    0.73547    1.000
    N4034    N        0.65224    0.56577    0.74141    1.000
    N4035    N        0.69181    0.58374    0.69239    1.000
    N4036    N        0.68036    0.68838    0.64498    1.000
    N4037    N        0.65878    0.68953    0.74809    1.000
    N4038    N        0.65457    0.64595    0.69512    1.000
    Si4039   Si       0.65455    0.64645    0.73771    1.000
    Si4040   Si       0.66277    0.64759    0.65256    1.000
    N4041    N        0.68845    0.75787    0.62491    1.000
    Si4042   Si       0.66094    0.54360    0.80843    1.000
    N4043    N        0.65100    0.58786    0.80443    1.000
    N4044    N        0.64694    0.52718    0.84607    1.000
    Si4045   Si       0.66978    0.61746    0.83321    1.000
    N4046    N        0.65985    0.59563    0.87053    1.000
    N4047    N        0.68854    0.62622    0.75381    1.000
    N4048    N        0.63770    0.51817    0.78116    1.000
    N4049    N        0.64865    0.73069    0.82618    1.000
    Si4050   Si       0.68355    0.74736    0.80703    1.000
    N4051    N        0.65704    0.66022    0.82693    1.000
    Si4052   Si       0.67354    0.69840    0.84355    1.000
    Si4053   Si       0.64855    0.60960    0.96082    1.000
    N4054    N        0.68650    0.59442    0.94129    1.000
    N4055    N        0.63871    0.51900    0.97532    1.000
    Si4056   Si       0.69015    0.60177    0.90028    1.000
    Si4057   Si       0.69322    0.65810    0.98465    1.000
    N4058    N        0.66875    0.69634    0.88845    1.000
    N4059    N        0.65226    0.64533    0.98442    1.000
    Si4060   Si       0.64202    0.73323    0.98429    1.000
    N4061    N        0.64302    0.70539    0.95071    1.000
    N4062    N        0.68201    0.74571    0.99592    1.000
    Si4063   Si       0.65826    0.77422    0.07903    1.000
    N4064    N        0.65999    0.85853    0.06903    1.000
    N4065    N        0.66372    0.82323    0.00343    1.000
    Si4066   Si       0.64026    0.83698    0.03700    1.000
    N4067    N        0.69366    0.79592    0.08906    1.000
    N4068    N        0.63508    0.76568    0.11469    1.000
    Si4069   Si       0.66191    0.93844    0.01343    1.000
    N4070    N        0.68099    0.92559    0.09660    1.000
    N4071    N        0.65869    0.98150    0.01951    1.000
    Si4072   Si       0.65251    0.90126    0.07165    1.000
    N4073    N        0.68537    0.90835    0.03631    1.000
    N4074    N        0.63989    0.83243    0.18197    1.000
    Si4075   Si       0.65240    0.80127    0.20941    1.000
    Si4076   Si       0.65294    0.87371    0.19244    1.000
    N4077    N        0.69030    0.87178    0.21306    1.000
    N4078    N        0.63656    0.76553    0.19079    1.000
    Si4079   Si       0.68479    0.92583    0.14086    1.000
    N4080    N        0.67632    0.96645    0.15934    1.000
    Si4081   Si       0.64113    0.97191    0.18326    1.000
    N4082    N        0.65517    0.89935    0.15800    1.000
    Si4083   Si       0.68089    0.96399    0.24398    1.000
    N4084    N        0.64182    0.95017    0.22107    1.000
    N4085    N        0.66721    0.77650    0.30589    1.000
    Si4086   Si       0.63541    0.88130    0.36888    1.000
    Si4087   Si       0.64332    0.91974    0.30157    1.000
    N4088    N        0.64470    0.95266    0.33442    1.000
    N4089    N        0.67446    0.92559    0.27305    1.000
    N4090    N        0.66138    0.99696    0.26976    1.000
    Si4091   Si       0.63818    0.99159    0.30736    1.000
    N4092    N        0.67586    0.87083    0.37466    1.000
    Si4093   Si       0.68259    0.83277    0.46481    1.000
    Si4094   Si       0.66831    0.77186    0.42558    1.000
    N4095    N        0.64586    0.85823    0.44962    1.000
    N4096    N        0.68567    0.81427    0.42584    1.000
    Si4097   Si       0.67710    0.76065    0.48687    1.000
    Si4098   Si       0.68820    0.95862    0.48459    1.000
    Si4099   Si       0.69682    0.95232    0.41765    1.000
    N4100    N        0.66163    0.97536    0.40511    1.000
    N4101    N        0.68067    0.91657    0.44069    1.000
    N4102    N        0.65129    0.97891    0.47391    1.000
    Si4103   Si       0.64166    0.89903    0.43026    1.000
    Si4104   Si       0.65447    0.00488    0.43839    1.000
    N4105    N        0.67884    0.79540    0.56364    1.000
    Si4106   Si       0.67231    0.85305    0.59891    1.000
    N4107    N        0.67990    0.86244    0.55577    1.000
    Si4108   Si       0.69327    0.82587    0.53326    1.000
    Si4109   Si       0.63601    0.78758    0.56391    1.000
    N4110    N        0.69723    0.82503    0.62089    1.000
    N4111    N        0.67549    0.80408    0.49716    1.000
    Si4112   Si       0.67854    0.90455    0.54507    1.000
    N4113    N        0.68344    0.98418    0.59042    1.000
    N4114    N        0.68441    0.91810    0.50438    1.000
    N4115    N        0.64122    0.92101    0.56110    1.000
    N4116    N        0.68083    0.86975    0.68789    1.000
    Si4117   Si       0.66987    0.84313    0.72340    1.000
    Si4118   Si       0.66847    0.76846    0.73891    1.000
    N4119    N        0.66548    0.77107    0.69372    1.000
    N4120    N        0.68990    0.88507    0.62736    1.000
    N4121    N        0.65770    0.94148    0.63436    1.000
    Si4122   Si       0.66337    0.90513    0.66004    1.000
    Si4123   Si       0.69300    0.00187    0.73769    1.000
    N4124    N        0.67036    0.93352    0.69699    1.000
    N4125    N        0.65893    0.00156    0.71430    1.000
    Si4126   Si       0.63993    0.96227    0.71048    1.000
    Si4127   Si       0.69074    0.90301    0.71788    1.000
    Si4128   Si       0.69379    0.96674    0.63102    1.000
    Si4129   Si       0.66257    0.87496    0.78967    1.000
    N4130    N        0.67840    0.87669    0.75042    1.000
    N4131    N        0.69118    0.78752    0.81556    1.000
    N4132    N        0.68106    0.80784    0.75006    1.000
    N4133    N        0.69505    0.85530    0.80978    1.000
    Si4134   Si       0.66115    0.95044    0.78091    1.000
    N4135    N        0.64914    0.98052    0.81253    1.000
    N4136    N        0.66154    0.91532    0.80628    1.000
    Si4137   Si       0.66616    0.92654    0.84893    1.000
    Si4138   Si       0.67463    0.99116    0.84450    1.000
    N4139    N        0.68586    0.89291    0.86707    1.000
    Si4140   Si       0.65486    0.78577    0.89701    1.000
    N4141    N        0.67411    0.86697    0.92477    1.000
    N4142    N        0.67131    0.79518    0.93941    1.000
    Si4143   Si       0.64166    0.80632    0.96900    1.000
    N4144    N        0.64109    0.82681    0.87999    1.000
    N4145    N        0.66241    0.00912    0.88302    1.000
    N4146    N        0.64054    0.92027    0.97829    1.000
    N4147    N        0.65682    0.00264    0.95234    1.000
    Si4148   Si       0.67631    0.98525    0.91780    1.000
    N4149    N        0.66921    0.94120    0.91574    1.000
    Si4150   Si       0.69034    0.90444    0.90904    1.000
    Si4151   Si       0.70351    0.11279    0.09507    1.000
    Si4152   Si       0.71681    0.05445    0.03696    1.000
    N4153    N        0.71479    0.09483    0.05615    1.000
    N4154    N        0.74225    0.06836    0.00146    1.000
    N4155    N        0.75241    0.03151    0.05707    1.000
    N4156    N        0.70544    0.07898    0.12158    1.000
    N4157    N        0.74218    0.13723    0.09323    1.000
    N4158    N        0.71949    0.24324    0.07982    1.000
    Si4159   Si       0.74683    0.17103    0.11971    1.000
    Si4160   Si       0.71100    0.23619    0.12189    1.000
    Si4161   Si       0.73627    0.06508    0.14819    1.000
    Si4162   Si       0.73209    0.11723    0.20998    1.000
    N4163    N        0.71934    0.03216    0.17144    1.000
    Si4164   Si       0.73814    0.00956    0.20324    1.000
    N4165    N        0.71014    0.19385    0.12710    1.000
    Si4166   Si       0.71544    0.18926    0.24237    1.000
    N4167    N        0.73899    0.16141    0.21874    1.000
    N4168    N        0.71068    0.23090    0.22830    1.000
    N4169    N        0.74198    0.25733    0.14239    1.000
    N4170    N        0.72293    0.02255    0.30842    1.000
    Si4171   Si       0.70153    0.01931    0.34685    1.000
    Si4172   Si       0.69800    0.02028    0.27270    1.000
    N4173    N        0.70807    0.05331    0.37135    1.000
    N4174    N        0.71448    0.12691    0.28349    1.000
    Si4175   Si       0.71669    0.16060    0.30832    1.000
    N4176    N        0.71757    0.19940    0.28666    1.000
    Si4177   Si       0.72408    0.24388    0.29831    1.000
    N4178    N        0.72125    0.24925    0.34325    1.000
    N4179    N        0.74873    0.16531    0.33603    1.000
    N4180    N        0.71204    0.12098    0.38998    1.000
    Si4181   Si       0.71918    0.02119    0.45485    1.000
    Si4182   Si       0.74472    0.03245    0.38552    1.000
    N4183    N        0.74922    0.03643    0.42676    1.000
    N4184    N        0.75033    0.11039    0.44669    1.000
    Si4185   Si       0.75158    0.11812    0.40580    1.000
    N4186    N        0.72712    0.03660    0.49422    1.000
    Si4187   Si       0.71839    0.13009    0.46520    1.000
    Si4188   Si       0.74845    0.18433    0.37627    1.000
    N4189    N        0.70898    0.22869    0.45313    1.000
    Si4190   Si       0.69960    0.19067    0.47062    1.000
    N4191    N        0.73272    0.16935    0.48679    1.000
    N4192    N        0.70847    0.19423    0.38212    1.000
    N4193    N        0.72531    0.11917    0.58137    1.000
    Si4194   Si       0.71332    0.07537    0.50596    1.000
    N4195    N        0.71343    0.06489    0.61534    1.000
    N4196    N        0.75037    0.09887    0.51181    1.000
    Si4197   Si       0.69467    0.08879    0.58464    1.000
    Si4198   Si       0.70501    0.25037    0.57672    1.000
    N4199    N        0.73908    0.23009    0.56025    1.000
    Si4200   Si       0.73909    0.18570    0.57232    1.000
    N4201    N        0.74293    0.17455    0.61451    1.000
    Si4202   Si       0.69432    0.19360    0.62013    1.000
    N4203    N        0.69511    0.23786    0.61714    1.000
    Si4204   Si       0.73461    0.13005    0.62174    1.000
    N4205    N        0.70855    0.09329    0.72460    1.000
    N4206    N        0.74716    0.05318    0.67598    1.000
    N4207    N        0.71456    0.12017    0.66131    1.000
    Si4208   Si       0.71070    0.08154    0.68260    1.000
    Si4209   Si       0.73631    0.01025    0.67754    1.000
    Si4210   Si       0.70738    0.15449    0.68822    1.000
    N4211    N        0.71194    0.19085    0.66326    1.000
    N4212    N        0.70489    0.24801    0.69485    1.000
    N4213    N        0.74109    0.15366    0.71564    1.000
    Si4214   Si       0.73326    0.09632    0.85528    1.000
    N4215    N        0.73831    0.07860    0.81788    1.000
    N4216    N        0.70761    0.01860    0.83407    1.000
    Si4217   Si       0.70504    0.05172    0.80563    1.000
    N4218    N        0.69970    0.03796    0.76258    1.000
    Si4219   Si       0.73419    0.12404    0.74611    1.000
    N4220    N        0.71032    0.13186    0.84360    1.000
    N4221    N        0.72845    0.19851    0.82480    1.000
    Si4222   Si       0.71397    0.17325    0.85649    1.000
    N4223    N        0.71998    0.23524    0.76304    1.000
    Si4224   Si       0.69919    0.21845    0.79854    1.000
    N4225    N        0.69857    0.13859    0.77342    1.000
    N4226    N        0.70623    0.06888    0.87880    1.000
    Si4227   Si       0.71291    0.02573    0.87874    1.000
    Si4228   Si       0.72787    0.02751    0.95129    1.000
    Si4229   Si       0.70515    0.08155    0.98315    1.000
    N4230    N        0.70572    0.06490    0.94432    1.000
    N4231    N        0.69579    0.12325    0.99188    1.000
    Si4232   Si       0.74885    0.22334    0.99794    1.000
    N4233    N        0.71875    0.19310    0.99501    1.000
    Si4234   Si       0.72792    0.15250    0.98784    1.000
    Si4235   Si       0.73605    0.13702    0.91276    1.000
    Si4236   Si       0.73738    0.25372    0.92687    1.000
    N4237    N        0.74101    0.17500    0.89217    1.000
    N4238    N        0.70904    0.24218    0.89359    1.000
    N4239    N        0.70365    0.24861    0.95464    1.000
    N4240    N        0.72839    0.31572    0.05255    1.000
    Si4241   Si       0.74061    0.27328    0.05582    1.000
    Si4242   Si       0.74337    0.33142    0.01572    1.000
    Si4243   Si       0.70368    0.33956    0.08007    1.000
    N4244    N        0.72043    0.37830    0.08968    1.000
    N4245    N        0.72871    0.25826    0.01671    1.000
    Si4246   Si       0.73188    0.39706    0.05384    1.000
    Si4247   Si       0.72578    0.46141    0.08003    1.000
    N4248    N        0.74263    0.50196    0.07718    1.000
    N4249    N        0.74917    0.43558    0.05542    1.000
    N4250    N        0.69942    0.40337    0.02549    1.000
    Si4251   Si       0.69546    0.34020    0.15461    1.000
    N4252    N        0.72911    0.32097    0.17657    1.000
    Si4253   Si       0.73702    0.26407    0.23713    1.000
    N4254    N        0.73029    0.30882    0.24073    1.000
    N4255    N        0.75179    0.37827    0.21901    1.000
    N4256    N        0.70386    0.38295    0.15564    1.000
    N4257    N        0.73580    0.44395    0.11932    1.000
    Si4258   Si       0.74658    0.46543    0.15422    1.000
    Si4259   Si       0.73099    0.40113    0.12614    1.000
    N4260    N        0.71524    0.49455    0.16622    1.000
    Si4261   Si       0.71903    0.31437    0.28322    1.000
    N4262    N        0.71959    0.34921    0.36123    1.000
    N4263    N        0.75465    0.32182    0.30556    1.000
    N4264    N        0.69605    0.27588    0.28574    1.000
    N4265    N        0.72057    0.41725    0.27328    1.000
    N4266    N        0.71480    0.46761    0.32499    1.000
    Si4267   Si       0.71907    0.42504    0.31586    1.000
    Si4268   Si       0.75192    0.46683    0.34979    1.000
    Si4269   Si       0.74883    0.26055    0.37583    1.000
    Si4270   Si       0.69870    0.31378    0.49050    1.000
    N4271    N        0.73815    0.27785    0.41622    1.000
    N4272    N        0.74180    0.30210    0.48275    1.000
    Si4273   Si       0.71409    0.36526    0.40050    1.000
    N4274    N        0.74197    0.34524    0.42889    1.000
    Si4275   Si       0.69994    0.26516    0.43193    1.000
    N4276    N        0.73337    0.47582    0.38713    1.000
    Si4277   Si       0.71435    0.44633    0.41284    1.000
    N4278    N        0.74936    0.40102    0.48603    1.000
    Si4279   Si       0.71262    0.50379    0.46306    1.000
    N4280    N        0.72951    0.40463    0.41386    1.000
    N4281    N        0.72285    0.46307    0.45255    1.000
    Si4282   Si       0.75259    0.44579    0.47828    1.000
    N4283    N        0.73007    0.34022    0.53578    1.000
    N4284    N        0.70844    0.29299    0.58720    1.000
    Si4285   Si       0.72114    0.37626    0.51127    1.000
    Si4286   Si       0.73922    0.30389    0.61607    1.000
    N4287    N        0.74223    0.34801    0.62102    1.000
    Si4288   Si       0.69609    0.32454    0.56013    1.000
    N4289    N        0.72447    0.46227    0.56634    1.000
    Si4290   Si       0.71702    0.47743    0.60681    1.000
    Si4291   Si       0.71215    0.36692    0.64903    1.000
    N4292    N        0.73158    0.28609    0.65322    1.000
    N4293    N        0.72900    0.35701    0.68694    1.000
    Si4294   Si       0.71083    0.33770    0.72087    1.000
    N4295    N        0.73031    0.29871    0.72763    1.000
    Si4296   Si       0.70319    0.26585    0.73735    1.000
    N4297    N        0.70667    0.41104    0.64491    1.000
    Si4298   Si       0.74204    0.49295    0.70415    1.000
    N4299    N        0.74809    0.46225    0.63305    1.000
    N4300    N        0.72577    0.45259    0.69907    1.000
    Si4301   Si       0.74106    0.43106    0.66426    1.000
    N4302    N        0.70981    0.50096    0.73593    1.000
    N4303    N        0.71463    0.35114    0.83021    1.000
    N4304    N        0.74268    0.29262    0.86029    1.000
    N4305    N        0.71319    0.36203    0.75538    1.000
    Si4306   Si       0.70589    0.26862    0.85868    1.000
    Si4307   Si       0.75196    0.33160    0.84241    1.000
    Si4308   Si       0.70046    0.37513    0.79515    1.000
    N4309    N        0.73361    0.47524    0.81388    1.000
    N4310    N        0.72062    0.41023    0.80373    1.000
    Si4311   Si       0.70159    0.44988    0.79918    1.000
    N4312    N        0.74746    0.37277    0.92041    1.000
    N4313    N        0.72243    0.34976    0.97788    1.000
    Si4314   Si       0.72865    0.33581    0.93449    1.000
    N4315    N        0.74938    0.29861    0.93366    1.000
    N4316    N        0.70238    0.49750    0.87181    1.000
    Si4317   Si       0.72734    0.39010    0.99485    1.000
    Si4318   Si       0.72028    0.48335    0.90833    1.000
    N4319    N        0.72960    0.42097    0.96693    1.000
    Si4320   Si       0.72583    0.41060    0.92232    1.000
    Si4321   Si       0.71761    0.46174    0.97757    1.000
    N4322    N        0.74458    0.44771    0.90592    1.000
    N4323    N        0.75189    0.48792    0.98339    1.000
    N4324    N        0.73977    0.57447    0.05607    1.000
    Si4325   Si       0.72619    0.53994    0.08492    1.000
    Si4326   Si       0.75120    0.60828    0.08120    1.000
    N4327    N        0.73427    0.61579    0.12079    1.000
    Si4328   Si       0.69662    0.58120    0.04653    1.000
    Si4329   Si       0.69768    0.72305    0.02998    1.000
    N4330    N        0.74407    0.64218    0.05623    1.000
    Si4331   Si       0.70510    0.65747    0.06045    1.000
    N4332    N        0.73967    0.72926    0.01847    1.000
    N4333    N        0.70534    0.67559    0.09840    1.000
    N4334    N        0.72953    0.54525    0.12681    1.000
    Si4335   Si       0.70569    0.54042    0.16248    1.000
    Si4336   Si       0.70528    0.57842    0.22686    1.000
    N4337    N        0.71825    0.57498    0.18512    1.000
    Si4338   Si       0.74728    0.59770    0.16048    1.000
    N4339    N        0.70357    0.73416    0.12899    1.000
    Si4340   Si       0.73565    0.66395    0.18846    1.000
    N4341    N        0.75141    0.70050    0.16909    1.000
    N4342    N        0.69847    0.73167    0.19911    1.000
    N4343    N        0.69784    0.65442    0.16819    1.000
    N4344    N        0.72098    0.67517    0.22867    1.000
    Si4345   Si       0.72522    0.73303    0.16569    1.000
    Si4346   Si       0.70123    0.64222    0.12545    1.000
    N4347    N        0.73472    0.56215    0.31746    1.000
    Si4348   Si       0.73132    0.58812    0.35159    1.000
    Si4349   Si       0.70156    0.54966    0.29272    1.000
    N4350    N        0.72389    0.54879    0.25365    1.000
    N4351    N        0.72362    0.61223    0.24743    1.000
    Si4352   Si       0.74109    0.74964    0.28199    1.000
    N4353    N        0.70509    0.72879    0.27350    1.000
    Si4354   Si       0.71234    0.65066    0.26471    1.000
    Si4355   Si       0.73836    0.69779    0.32632    1.000
    N4356    N        0.73918    0.66027    0.29889    1.000
    N4357    N        0.70502    0.72305    0.34064    1.000
    Si4358   Si       0.71352    0.75546    0.37168    1.000
    N4359    N        0.71196    0.59304    0.45282    1.000
    Si4360   Si       0.73384    0.56700    0.42679    1.000
    N4361    N        0.70242    0.52883    0.42671    1.000
    Si4362   Si       0.71675    0.51856    0.38702    1.000
    N4363    N        0.73559    0.55836    0.38285    1.000
    N4364    N        0.73489    0.53414    0.48501    1.000
    Si4365   Si       0.72785    0.57810    0.49250    1.000
    Si4366   Si       0.72176    0.63458    0.44610    1.000
    N4367    N        0.72854    0.63624    0.40480    1.000
    Si4368   Si       0.74663    0.74432    0.45282    1.000
    N4369    N        0.70717    0.75827    0.45271    1.000
    Si4370   Si       0.71161    0.60376    0.60809    1.000
    Si4371   Si       0.71882    0.53645    0.56495    1.000
    N4372    N        0.72154    0.51986    0.60341    1.000
    N4373    N        0.70680    0.57975    0.57345    1.000
    N4374    N        0.72688    0.64284    0.59540    1.000
    Si4375   Si       0.72976    0.71148    0.52708    1.000
    N4376    N        0.72666    0.66883    0.53080    1.000
    Si4377   Si       0.70159    0.66164    0.56701    1.000
    Si4378   Si       0.75690    0.64175    0.51279    1.000
    N4379    N        0.73268    0.57784    0.63689    1.000
    Si4380   Si       0.71284    0.53917    0.64073    1.000
    N4381    N        0.73233    0.51916    0.67250    1.000
    Si4382   Si       0.72713    0.60221    0.67485    1.000
    Si4383   Si       0.70171    0.70313    0.74790    1.000
    Si4384   Si       0.71858    0.68710    0.66515    1.000
    Si4385   Si       0.74961    0.73423    0.70045    1.000
    N4386    N        0.74038    0.75379    0.66447    1.000
    N4387    N        0.71853    0.70453    0.70587    1.000
    N4388    N        0.71935    0.64365    0.66957    1.000
    N4389    N        0.75500    0.69076    0.64214    1.000
    Si4390   Si       0.72468    0.52596    0.76761    1.000
    Si4391   Si       0.73249    0.62223    0.86224    1.000
    N4392    N        0.71377    0.62098    0.82298    1.000
    N4393    N        0.70241    0.53486    0.80647    1.000
    N4394    N        0.72623    0.56602    0.75017    1.000
    Si4395   Si       0.72496    0.51044    0.83789    1.000
    Si4396   Si       0.72126    0.63783    0.78273    1.000
    N4397    N        0.70772    0.71825    0.82745    1.000
    N4398    N        0.72873    0.68107    0.77482    1.000
    Si4399   Si       0.74594    0.72305    0.84884    1.000
    N4400    N        0.69804    0.74469    0.76455    1.000
    N4401    N        0.72723    0.58289    0.88457    1.000
    N4402    N        0.73957    0.52167    0.92319    1.000
    Si4403   Si       0.71152    0.58598    0.97841    1.000
    N4404    N        0.74289    0.55709    0.98470    1.000
    N4405    N        0.71941    0.62531    0.99564    1.000
    N4406    N        0.73326    0.70945    0.89001    1.000
    N4407    N        0.73459    0.75387    0.94151    1.000
    N4408    N        0.70705    0.64192    0.88971    1.000
    Si4409   Si       0.72418    0.75763    0.98625    1.000
    Si4410   Si       0.70417    0.68239    0.90658    1.000
    N4411    N        0.71440    0.67357    0.94974    1.000
    N4412    N        0.72321    0.84644    0.04468    1.000
    Si4413   Si       0.70871    0.82870    0.00719    1.000
    Si4414   Si       0.69951    0.83800    0.08260    1.000
    N4415    N        0.72888    0.84280    0.11397    1.000
    Si4416   Si       0.71719    0.76249    0.09630    1.000
    N4417    N        0.73747    0.79735    0.99558    1.000
    N4418    N        0.74562    0.90438    0.07869    1.000
    Si4419   Si       0.71201    0.92695    0.06451    1.000
    N4420    N        0.72469    0.96611    0.05096    1.000
    Si4421   Si       0.73404    0.96940    0.00763    1.000
    Si4422   Si       0.72361    0.00275    0.07485    1.000
    Si4423   Si       0.71219    0.90121    0.00290    1.000
    N4424    N        0.72780    0.99268    0.11573    1.000
    Si4425   Si       0.73673    0.78700    0.21120    1.000
    N4426    N        0.74191    0.77373    0.17159    1.000
    Si4427   Si       0.71853    0.84455    0.22824    1.000
    N4428    N        0.69675    0.80471    0.21912    1.000
    N4429    N        0.72498    0.91908    0.15145    1.000
    N4430    N        0.71230    0.00048    0.23711    1.000
    Si4431   Si       0.74063    0.93449    0.19024    1.000
    N4432    N        0.71109    0.93518    0.22262    1.000
    N4433    N        0.74828    0.97492    0.17917    1.000
    Si4434   Si       0.69763    0.00176    0.14610    1.000
    Si4435   Si       0.69648    0.89996    0.24562    1.000
    N4436    N        0.73622    0.78595    0.30489    1.000
    Si4437   Si       0.73304    0.86569    0.29864    1.000
    Si4438   Si       0.69923    0.80158    0.31944    1.000
    N4439    N        0.70463    0.79812    0.36135    1.000
    N4440    N        0.72878    0.87460    0.25778    1.000
    N4441    N        0.69677    0.84232    0.30705    1.000
    N4442    N        0.73231    0.89911    0.32891    1.000
    Si4443   Si       0.71491    0.89262    0.36831    1.000
    N4444    N        0.73424    0.85699    0.38298    1.000
    N4445    N        0.71477    0.85761    0.48004    1.000
    Si4446   Si       0.69733    0.83373    0.38735    1.000
    Si4447   Si       0.70645    0.89923    0.47023    1.000
    Si4448   Si       0.75322    0.96140    0.38050    1.000
    N4449    N        0.72369    0.92937    0.38898    1.000
    N4450    N        0.72562    0.99447    0.37231    1.000
    N4451    N        0.70958    0.97851    0.44916    1.000
    N4452    N        0.74138    0.92163    0.46066    1.000
    N4453    N        0.73640    0.82743    0.53485    1.000
    Si4454   Si       0.70426    0.79008    0.59905    1.000
    N4455    N        0.74871    0.78630    0.59624    1.000
    Si4456   Si       0.75291    0.85492    0.50351    1.000
    Si4457   Si       0.72079    0.90644    0.60539    1.000
    N4458    N        0.70912    0.92678    0.56717    1.000
    Si4459   Si       0.71081    0.97031    0.56158    1.000
    N4460    N        0.70463    0.97846    0.51822    1.000
    Si4461   Si       0.74146    0.00213    0.51674    1.000
    N4462    N        0.74530    0.99666    0.56008    1.000
    N4463    N        0.74812    0.86984    0.66402    1.000
    Si4464   Si       0.70677    0.85188    0.65631    1.000
    N4465    N        0.71649    0.81327    0.67840    1.000
    Si4466   Si       0.69921    0.77525    0.66531    1.000
    N4467    N        0.74969    0.77329    0.72319    1.000
    Si4468   Si       0.75550    0.80539    0.69422    1.000
    Si4469   Si       0.73288    0.95077    0.73728    1.000
    N4470    N        0.73103    0.99580    0.71733    1.000
    N4471    N        0.72989    0.94210    0.62850    1.000
    N4472    N        0.73253    0.91251    0.72073    1.000
    N4473    N        0.70262    0.00446    0.65086    1.000
    N4474    N        0.74175    0.80890    0.77895    1.000
    Si4475   Si       0.71351    0.87109    0.84362    1.000
    Si4476   Si       0.71802    0.79478    0.85209    1.000
    N4477    N        0.73097    0.83473    0.85960    1.000
    Si4478   Si       0.73809    0.76631    0.76354    1.000
    N4479    N        0.75182    0.76657    0.84811    1.000
    Si4480   Si       0.69977    0.81819    0.78591    1.000
    N4481    N        0.74299    0.90078    0.83240    1.000
    Si4482   Si       0.73960    0.93946    0.85079    1.000
    N4483    N        0.69914    0.95455    0.85279    1.000
    N4484    N        0.69599    0.96063    0.75800    1.000
    Si4485   Si       0.71399    0.85681    0.94086    1.000
    N4486    N        0.73535    0.82322    0.92331    1.000
    Si4487   Si       0.71162    0.78636    0.92536    1.000
    N4488    N        0.71066    0.86342    0.98233    1.000
    N4489    N        0.69501    0.77914    0.88617    1.000
    N4490    N        0.73053    0.89581    0.92332    1.000
    N4491    N        0.71838    0.00409    0.98619    1.000
    N4492    N        0.70447    0.94067    0.98894    1.000
    N4493    N        0.71420    0.00478    0.91747    1.000
    N4494    N        0.78926    0.09418    0.05258    1.000
    Si4495   Si       0.79060    0.05030    0.05185    1.000
    N4496    N        0.80444    0.03134    0.01457    1.000
    Si4497   Si       0.75251    0.11753    0.05391    1.000
    N4498    N        0.78251    0.21124    0.02289    1.000
    Si4499   Si       0.79334    0.16975    0.02395    1.000
    N4500    N        0.78062    0.19937    0.11046    1.000
    Si4501   Si       0.80679    0.24149    0.04312    1.000
    N4502    N        0.75540    0.14649    0.02217    1.000
    N4503    N        0.81157    0.15716    0.06064    1.000
    N4504    N        0.77416    0.07396    0.12396    1.000
    Si4505   Si       0.77674    0.11091    0.14775    1.000
    N4506    N        0.77342    0.02921    0.21887    1.000
    Si4507   Si       0.77654    0.07104    0.21386    1.000
    Si4508   Si       0.80717    0.04684    0.12251    1.000
    N4509    N        0.78843    0.01456    0.14402    1.000
    N4510    N        0.75276    0.09132    0.17935    1.000
    N4511    N        0.75268    0.09370    0.24223    1.000
    N4512    N        0.76079    0.15055    0.15560    1.000
    Si4513   Si       0.77661    0.23094    0.14032    1.000
    Si4514   Si       0.77361    0.16865    0.19265    1.000
    N4515    N        0.80628    0.14856    0.21210    1.000
    Si4516   Si       0.79867    0.23569    0.20765    1.000
    N4517    N        0.79629    0.20853    0.24164    1.000
    N4518    N        0.78427    0.20832    0.17661    1.000
    Si4519   Si       0.79479    0.09440    0.34934    1.000
    N4520    N        0.77506    0.03155    0.35483    1.000
    N4521    N        0.76712    0.08575    0.31608    1.000
    Si4522   Si       0.76222    0.03907    0.31472    1.000
    N4523    N        0.79439    0.02158    0.28944    1.000
    Si4524   Si       0.75616    0.11102    0.28094    1.000
    N4525    N        0.78099    0.14616    0.28018    1.000
    Si4526   Si       0.78759    0.16366    0.31812    1.000
    Si4527   Si       0.79549    0.23271    0.27825    1.000
    N4528    N        0.80488    0.20101    0.30992    1.000
    Si4529   Si       0.80801    0.16571    0.25202    1.000
    N4530    N        0.75897    0.25505    0.27544    1.000
    N4531    N        0.81026    0.13637    0.34692    1.000
    Si4532   Si       0.77867    0.10522    0.48001    1.000
    Si4533   Si       0.78500    0.06099    0.42569    1.000
    N4534    N        0.77906    0.08992    0.39189    1.000
    N4535    N        0.80192    0.07212    0.46529    1.000
    N4536    N        0.81240    0.03362    0.40851    1.000
    Si4537   Si       0.80891    0.21777    0.39834    1.000
    N4538    N        0.80162    0.20393    0.44004    1.000
    Si4539   Si       0.79869    0.15986    0.43665    1.000
    N4540    N        0.76888    0.22182    0.38131    1.000
    N4541    N        0.76568    0.15956    0.40704    1.000
    N4542    N        0.79686    0.14758    0.48038    1.000
    N4543    N        0.79186    0.10359    0.56467    1.000
    N4544    N        0.77844    0.03395    0.61363    1.000
    Si4545   Si       0.75581    0.11981    0.54944    1.000
    Si4546   Si       0.80783    0.11632    0.60310    1.000
    N4547    N        0.81023    0.01098    0.54770    1.000
    Si4548   Si       0.77793    0.24409    0.54332    1.000
    N4549    N        0.78706    0.21564    0.50912    1.000
    Si4550   Si       0.77079    0.17609    0.50464    1.000
    N4551    N        0.80379    0.23065    0.57624    1.000
    N4552    N        0.76005    0.16248    0.54349    1.000
    Si4553   Si       0.79840    0.25023    0.62147    1.000
    N4554    N        0.79111    0.03422    0.73589    1.000
    Si4555   Si       0.79110    0.12265    0.66624    1.000
    N4556    N        0.77185    0.10834    0.63006    1.000
    N4557    N        0.78622    0.09897    0.70134    1.000
    Si4558   Si       0.78619    0.05662    0.69791    1.000
    Si4559   Si       0.80382    0.11627    0.73740    1.000
    Si4560   Si       0.75493    0.06493    0.63247    1.000
    Si4561   Si       0.80501    0.00951    0.64009    1.000
    N4562    N        0.76644    0.23268    0.64659    1.000
    Si4563   Si       0.77697    0.17983    0.71135    1.000
    N4564    N        0.80888    0.15983    0.73335    1.000
    N4565    N        0.76643    0.22097    0.71062    1.000
    N4566    N        0.78701    0.16626    0.66817    1.000
    Si4567   Si       0.75586    0.19218    0.64965    1.000
    Si4568   Si       0.75376    0.25650    0.68253    1.000
    Si4569   Si       0.77015    0.07044    0.78745    1.000
    N4570    N        0.76916    0.10671    0.76368    1.000
    N4571    N        0.75901    0.02735    0.79005    1.000
    N4572    N        0.81227    0.06584    0.79769    1.000
    Si4573   Si       0.75137    0.01048    0.82998    1.000
    N4574    N        0.78008    0.25180    0.82703    1.000
    N4575    N        0.78092    0.20171    0.77862    1.000
    N4576    N        0.79107    0.18408    0.84975    1.000
    Si4577   Si       0.77029    0.20887    0.82091    1.000
    Si4578   Si       0.76369    0.23190    0.75328    1.000
    N4579    N        0.75804    0.02281    0.87193    1.000
    N4580    N        0.77124    0.03063    0.94749    1.000
    Si4581   Si       0.80183    0.10080    0.88429    1.000
    Si4582   Si       0.78100    0.05624    0.98418    1.000
    Si4583   Si       0.78585    0.02439    0.90593    1.000
    N4584    N        0.79962    0.09363    0.97215    1.000
    N4585    N        0.75979    0.11268    0.88484    1.000
    N4586    N        0.80731    0.06234    0.90405    1.000
    N4587    N        0.80848    0.19099    0.91945    1.000
    Si4588   Si       0.79495    0.13675    0.95814    1.000
    N4589    N        0.77436    0.23859    0.90040    1.000
    Si4590   Si       0.80585    0.23138    0.93899    1.000
    N4591    N        0.76830    0.24037    0.96359    1.000
    Si4592   Si       0.77871    0.19599    0.89022    1.000
    N4593    N        0.75260    0.14267    0.95216    1.000
    N4594    N        0.78220    0.27175    0.06201    1.000
    Si4595   Si       0.79921    0.30781    0.08206    1.000
    Si4596   Si       0.79951    0.37372    0.03161    1.000
    N4597    N        0.77432    0.31772    0.11709    1.000
    N4598    N        0.80719    0.33378    0.04778    1.000
    N4599    N        0.75472    0.37333    0.02626    1.000
    Si4600   Si       0.79298    0.44164    0.05468    1.000
    N4601    N        0.80287    0.47287    0.08069    1.000
    N4602    N        0.80656    0.45630    0.01577    1.000
    Si4603   Si       0.79095    0.49456    0.00231    1.000
    N4604    N        0.80561    0.40213    0.06356    1.000
    N4605    N        0.80396    0.26571    0.14896    1.000
    N4606    N        0.76699    0.26684    0.20575    1.000
    Si4607   Si       0.79386    0.35112    0.13827    1.000
    N4608    N        0.79270    0.32901    0.17701    1.000
    Si4609   Si       0.76746    0.29242    0.15969    1.000
    N4610    N        0.79263    0.33138    0.23863    1.000
    Si4611   Si       0.75463    0.33036    0.21220    1.000
    N4612    N        0.76900    0.38727    0.14320    1.000
    N4613    N        0.76207    0.43909    0.18617    1.000
    Si4614   Si       0.78592    0.46275    0.21554    1.000
    N4615    N        0.76895    0.50138    0.22140    1.000
    Si4616   Si       0.77212    0.39775    0.18352    1.000
    N4617    N        0.78162    0.49309    0.15105    1.000
    Si4618   Si       0.78750    0.33573    0.28097    1.000
    N4619    N        0.79378    0.35959    0.34686    1.000
    N4620    N        0.77433    0.29502    0.36580    1.000
    Si4621   Si       0.75827    0.33201    0.34774    1.000
    N4622    N        0.77863    0.38037    0.28535    1.000
    Si4623   Si       0.81637    0.28220    0.36576    1.000
    N4624    N        0.79117    0.48754    0.34620    1.000
    Si4625   Si       0.79037    0.39649    0.32327    1.000
    Si4626   Si       0.75846    0.40118    0.25511    1.000
    N4627    N        0.78680    0.43564    0.24919    1.000
    N4628    N        0.75928    0.42489    0.33520    1.000
    N4629    N        0.79970    0.31023    0.44664    1.000
    Si4630   Si       0.75773    0.30633    0.44137    1.000
    N4631    N        0.79826    0.37956    0.44537    1.000
    N4632    N        0.78591    0.44628    0.44969    1.000
    Si4633   Si       0.75645    0.38564    0.44386    1.000
    N4634    N        0.78714    0.28594    0.53569    1.000
    N4635    N        0.77523    0.28374    0.60231    1.000
    Si4636   Si       0.76453    0.31946    0.51568    1.000
    N4637    N        0.80380    0.34024    0.58149    1.000
    Si4638   Si       0.80511    0.29713    0.57317    1.000
    Si4639   Si       0.78392    0.35836    0.61599    1.000
    N4640    N        0.79187    0.35028    0.50587    1.000
    Si4641   Si       0.78695    0.39294    0.51152    1.000
    N4642    N        0.79558    0.46337    0.58105    1.000
    N4643    N        0.77362    0.41439    0.54653    1.000
    N4644    N        0.79562    0.40111    0.61612    1.000
    Si4645   Si       0.76353    0.45764    0.55016    1.000
    N4646    N        0.76018    0.47425    0.50952    1.000
    Si4647   Si       0.80491    0.42012    0.57837    1.000
    Si4648   Si       0.78740    0.47928    0.62067    1.000
    N4649    N        0.78907    0.28208    0.69262    1.000
    N4650    N        0.78464    0.34347    0.72672    1.000
    Si4651   Si       0.77251    0.36557    0.68873    1.000
    Si4652   Si       0.77532    0.30174    0.72950    1.000
    N4653    N        0.79889    0.34900    0.65645    1.000
    N4654    N        0.81235    0.46039    0.65074    1.000
    N4655    N        0.78709    0.49258    0.70994    1.000
    N4656    N        0.77278    0.40531    0.67544    1.000
    Si4657   Si       0.80899    0.41758    0.65358    1.000
    Si4658   Si       0.79638    0.28130    0.79945    1.000
    N4659    N        0.77925    0.31995    0.81000    1.000
    N4660    N        0.78246    0.27121    0.75990    1.000
    N4661    N        0.78022    0.35713    0.86207    1.000
    Si4662   Si       0.80658    0.35431    0.82585    1.000
    Si4663   Si       0.77798    0.26841    0.86724    1.000
    Si4664   Si       0.80775    0.36500    0.75823    1.000
    N4665    N        0.79040    0.38296    0.79620    1.000
    N4666    N        0.77706    0.43278    0.84813    1.000
    N4667    N        0.78635    0.44337    0.78561    1.000
    Si4668   Si       0.77563    0.48162    0.80174    1.000
    Si4669   Si       0.76374    0.41516    0.81032    1.000
    Si4670   Si       0.77809    0.28365    0.96178    1.000
    Si4671   Si       0.78709    0.36835    0.90381    1.000
    N4672    N        0.77376    0.30703    0.99725    1.000
    N4673    N        0.81188    0.34131    0.92740    1.000
    N4674    N        0.81482    0.38852    0.99229    1.000
    N4675    N        0.80611    0.40848    0.90368    1.000
    N4676    N        0.80724    0.48192    0.89437    1.000
    Si4677   Si       0.78438    0.44324    0.88795    1.000
    N4678    N        0.78504    0.60245    0.01005    1.000
    N4679    N        0.78546    0.52603    0.03145    1.000
    N4680    N        0.79433    0.60390    0.08896    1.000
    N4681    N        0.79460    0.53788    0.10303    1.000
    Si4682   Si       0.76490    0.56369    0.02145    1.000
    Si4683   Si       0.78491    0.51037    0.07298    1.000
    Si4684   Si       0.75577    0.63356    0.01726    1.000
    N4685    N        0.79429    0.71443    0.06191    1.000
    Si4686   Si       0.77713    0.70827    0.02191    1.000
    N4687    N        0.76837    0.67087    0.00053    1.000
    N4688    N        0.80958    0.72518    0.99735    1.000
    Si4689   Si       0.79291    0.75565    0.07754    1.000
    Si4690   Si       0.80619    0.57654    0.11900    1.000
    Si4691   Si       0.80424    0.56927    0.19103    1.000
    N4692    N        0.77855    0.57266    0.22447    1.000
    N4693    N        0.78038    0.57206    0.15364    1.000
    Si4694   Si       0.76939    0.53184    0.13822    1.000
    Si4695   Si       0.76489    0.53691    0.24314    1.000
    N4696    N        0.80551    0.69194    0.12469    1.000
    N4697    N        0.80314    0.74862    0.16172    1.000
    N4698    N        0.76316    0.63256    0.18212    1.000
    Si4699   Si       0.79442    0.70582    0.16265    1.000
    Si4700   Si       0.80456    0.64109    0.19591    1.000
    N4701    N        0.79630    0.64049    0.23867    1.000
    N4702    N        0.78024    0.60241    0.28792    1.000
    N4703    N        0.79019    0.53400    0.27992    1.000
    Si4704   Si       0.77580    0.56329    0.30860    1.000
    N4705    N        0.79967    0.55443    0.34461    1.000
    N4706    N        0.76343    0.61953    0.35002    1.000
    Si4707   Si       0.76756    0.60795    0.24588    1.000
    N4708    N        0.75657    0.68524    0.36276    1.000
    Si4709   Si       0.77341    0.63795    0.31185    1.000
    N4710    N        0.80700    0.66501    0.30012    1.000
    N4711    N        0.76558    0.72320    0.30453    1.000
    Si4712   Si       0.80399    0.70816    0.29361    1.000
    Si4713   Si       0.80435    0.52074    0.37153    1.000
    N4714    N        0.80595    0.53677    0.48599    1.000
    Si4715   Si       0.78694    0.61882    0.44438    1.000
    N4716    N        0.77362    0.57884    0.44026    1.000
    Si4717   Si       0.80546    0.54781    0.44271    1.000
    N4718    N        0.79854    0.51273    0.41519    1.000
    N4719    N        0.75565    0.72102    0.49213    1.000
    N4720    N        0.75667    0.75495    0.38022    1.000
    N4721    N        0.79761    0.64355    0.41214    1.000
    N4722    N        0.81244    0.68981    0.46417    1.000
    Si4723   Si       0.76932    0.68850    0.46553    1.000
    N4724    N        0.75911    0.64569    0.46681    1.000
    Si4725   Si       0.77221    0.71500    0.38886    1.000
    Si4726   Si       0.76519    0.64808    0.38287    1.000
    N4727    N        0.75689    0.70941    0.42899    1.000
    Si4728   Si       0.78089    0.57291    0.54714    1.000
    N4729    N        0.78196    0.58622    0.58887    1.000
    Si4730   Si       0.76806    0.51691    0.50681    1.000
    Si4731   Si       0.80863    0.61927    0.60235    1.000
    N4732    N        0.75847    0.53621    0.54462    1.000
    N4733    N        0.78798    0.52127    0.61947    1.000
    N4734    N        0.75759    0.59733    0.51635    1.000
    Si4735   Si       0.78846    0.75388    0.50201    1.000
    Si4736   Si       0.79074    0.68784    0.55409    1.000
    N4737    N        0.79547    0.66076    0.52227    1.000
    Si4738   Si       0.78325    0.74580    0.57742    1.000
    N4739    N        0.79870    0.66276    0.58811    1.000
    N4740    N        0.75721    0.71584    0.56173    1.000
    N4741    N        0.79175    0.74326    0.62002    1.000
    Si4742   Si       0.76302    0.66016    0.61530    1.000
    Si4743   Si       0.77519    0.56320    0.62504    1.000
    Si4744   Si       0.79693    0.60703    0.67408    1.000
    N4745    N        0.76216    0.60077    0.69882    1.000
    N4746    N        0.78549    0.62815    0.63823    1.000
    Si4747   Si       0.76191    0.58736    0.74071    1.000
    Si4748   Si       0.79654    0.51987    0.74316    1.000
    N4749    N        0.79830    0.56346    0.74641    1.000
    N4750    N        0.80955    0.57141    0.65372    1.000
    N4751    N        0.79084    0.71799    0.69645    1.000
    Si4752   Si       0.79097    0.71042    0.65274    1.000
    N4753    N        0.76459    0.52512    0.85535    1.000
    N4754    N        0.75952    0.61957    0.76981    1.000
    N4755    N        0.76650    0.51255    0.77276    1.000
    Si4756   Si       0.80684    0.51338    0.86083    1.000
    N4757    N        0.77430    0.63373    0.87212    1.000
    Si4758   Si       0.76427    0.69923    0.78696    1.000
    Si4759   Si       0.79847    0.64076    0.77448    1.000
    Si4760   Si       0.79425    0.66275    0.84898    1.000
    N4761    N        0.77087    0.69267    0.83011    1.000
    N4762    N        0.76953    0.74142    0.77882    1.000
    N4763    N        0.79599    0.68193    0.76123    1.000
    N4764    N        0.80164    0.51758    0.96595    1.000
    Si4765   Si       0.79561    0.61234    0.90609    1.000
    N4766    N        0.79058    0.56859    0.90396    1.000
    Si4767   Si       0.80794    0.61966    0.97740    1.000
    N4768    N        0.78014    0.63017    0.94343    1.000
    Si4769   Si       0.75370    0.54937    0.89169    1.000
    Si4770   Si       0.75868    0.52443    0.96145    1.000
    Si4771   Si       0.75934    0.66800    0.95689    1.000
    N4772    N        0.79405    0.74385    0.89083    1.000
    N4773    N        0.78121    0.70004    0.93995    1.000
    Si4774   Si       0.76175    0.73164    0.91654    1.000
    N4775    N        0.79134    0.77931    0.03918    1.000
    N4776    N        0.79059    0.85340    0.07580    1.000
    Si4777   Si       0.77924    0.80696    0.00753    1.000
    Si4778   Si       0.76000    0.87240    0.04646    1.000
    N4779    N        0.79234    0.84823    0.00915    1.000
    Si4780   Si       0.77162    0.84575    0.11501    1.000
    N4781    N        0.76042    0.76434    0.10364    1.000
    N4782    N        0.75530    0.90350    0.01366    1.000
    N4783    N        0.77734    0.96406    0.00228    1.000
    Si4784   Si       0.81256    0.98994    0.00818    1.000
    Si4785   Si       0.80000    0.82932    0.21828    1.000
    N4786    N        0.79281    0.81225    0.13544    1.000
    Si4787   Si       0.77336    0.77534    0.14293    1.000
    N4788    N        0.75634    0.82644    0.21841    1.000
    N4789    N        0.75621    0.76286    0.24262    1.000
    N4790    N        0.78125    0.88109    0.13571    1.000
    Si4791   Si       0.80545    0.89128    0.16961    1.000
    N4792    N        0.78087    0.94611    0.12156    1.000
    Si4793   Si       0.75455    0.91095    0.12017    1.000
    N4794    N        0.78210    0.91853    0.19402    1.000
    Si4795   Si       0.76343    0.97974    0.13990    1.000
    N4796    N        0.77068    0.84456    0.30307    1.000
    Si4797   Si       0.77558    0.80307    0.31366    1.000
    N4798    N        0.79146    0.81202    0.35360    1.000
    Si4799   Si       0.79996    0.76403    0.24931    1.000
    Si4800   Si       0.80707    0.86560    0.29061    1.000
    N4801    N        0.80811    0.78184    0.29035    1.000
    N4802    N        0.78038    0.94998    0.34889    1.000
    Si4803   Si       0.77513    0.90841    0.33642    1.000
    N4804    N        0.79692    0.90487    0.29878    1.000
    N4805    N        0.79520    0.96427    0.24760    1.000
    Si4806   Si       0.79660    0.00680    0.24857    1.000
    Si4807   Si       0.79665    0.81014    0.45123    1.000
    Si4808   Si       0.77570    0.84648    0.37974    1.000
    Si4809   Si       0.78532    0.78786    0.38778    1.000
    N4810    N        0.77941    0.82147    0.41494    1.000
    N4811    N        0.77788    0.77342    0.46311    1.000
    N4812    N        0.78855    0.83564    0.48647    1.000
    N4813    N        0.79319    0.88397    0.36697    1.000
    N4814    N        0.77903    0.97011    0.41613    1.000
    N4815    N        0.77116    0.98460    0.49245    1.000
    N4816    N        0.80600    0.93447    0.46966    1.000
    Si4817   Si       0.76946    0.95407    0.45782    1.000
    N4818    N        0.79727    0.83488    0.56414    1.000
    N4819    N        0.78286    0.77256    0.54062    1.000
    Si4820   Si       0.76449    0.80529    0.56064    1.000
    Si4821   Si       0.78691    0.87663    0.56493    1.000
    N4822    N        0.75800    0.88368    0.59735    1.000
    N4823    N        0.77382    0.88776    0.52598    1.000
    N4824    N        0.79284    0.97005    0.60169    1.000
    Si4825   Si       0.80504    0.91069    0.50646    1.000
    Si4826   Si       0.78158    0.00725    0.57944    1.000
    Si4827   Si       0.80909    0.98283    0.51344    1.000
    N4828    N        0.81243    0.94297    0.53312    1.000
    N4829    N        0.78495    0.80277    0.66324    1.000
    Si4830   Si       0.76754    0.77464    0.63557    1.000
    N4831    N        0.76311    0.84081    0.71887    1.000
    Si4832   Si       0.77909    0.87980    0.63709    1.000
    Si4833   Si       0.76005    0.88244    0.70605    1.000
    N4834    N        0.77118    0.98765    0.66181    1.000
    N4835    N        0.79842    0.90006    0.71889    1.000
    N4836    N        0.79249    0.91831    0.65167    1.000
    Si4837   Si       0.76966    0.95215    0.63680    1.000
    N4838    N        0.78433    0.86624    0.77833    1.000
    Si4839   Si       0.77405    0.82871    0.75937    1.000
    Si4840   Si       0.79401    0.77451    0.85988    1.000
    N4841    N        0.80675    0.79934    0.76080    1.000
    Si4842   Si       0.80823    0.76092    0.78250    1.000
    N4843    N        0.80547    0.87756    0.84190    1.000
    Si4844   Si       0.77898    0.89253    0.81175    1.000
    N4845    N        0.80669    0.92344    0.79497    1.000
    N4846    N        0.76890    0.97007    0.83162    1.000
    Si4847   Si       0.79207    0.96413    0.79435    1.000
    N4848    N        0.76575    0.96410    0.76130    1.000
    Si4849   Si       0.79520    0.96330    0.86913    1.000
    Si4850   Si       0.81308    0.89281    0.75954    1.000
    Si4851   Si       0.76006    0.00801    0.75070    1.000
    N4852    N        0.79675    0.81459    0.87154    1.000
    N4853    N        0.81074    0.79212    0.97805    1.000
    Si4854   Si       0.76125    0.83377    0.89109    1.000
    N4855    N        0.78512    0.86684    0.90523    1.000
    N4856    N        0.76825    0.93494    0.88466    1.000
    N4857    N        0.80476    0.98623    0.90507    1.000
    N4858    N        0.79257    0.92813    0.94875    1.000
    Si4859   Si       0.77088    0.90728    0.91664    1.000
    Si4860   Si       0.78860    0.92325    0.99299    1.000
    Si4861   Si       0.82833    0.11716    0.05679    1.000
    N4862    N        0.84587    0.10231    0.09319    1.000
    Si4863   Si       0.86066    0.05851    0.09202    1.000
    N4864    N        0.86176    0.11820    0.02779    1.000
    N4865    N        0.82118    0.03612    0.08184    1.000
    N4866    N        0.83283    0.22290    0.07293    1.000
    Si4867   Si       0.85491    0.25100    0.09623    1.000
    N4868    N        0.84852    0.16956    0.11777    1.000
    Si4869   Si       0.81833    0.18658    0.09150    1.000
    Si4870   Si       0.85066    0.12603    0.12775    1.000
    N4871    N        0.85091    0.05018    0.13521    1.000
    Si4872   Si       0.83233    0.11676    0.19927    1.000
    Si4873   Si       0.84865    0.05917    0.23676    1.000
    N4874    N        0.82077    0.11639    0.15720    1.000
    N4875    N        0.81837    0.07937    0.21501    1.000
    N4876    N        0.83965    0.01715    0.24670    1.000
    N4877    N        0.84060    0.24939    0.20211    1.000
    Si4878   Si       0.86188    0.24862    0.24046    1.000
    N4879    N        0.86079    0.23262    0.13534    1.000
    N4880    N        0.82829    0.06910    0.34358    1.000
    Si4881   Si       0.85911    0.07137    0.31316    1.000
    N4882    N        0.86040    0.08501    0.27152    1.000
    N4883    N        0.86534    0.02673    0.31530    1.000
    Si4884   Si       0.82070    0.03269    0.36425    1.000
    N4885    N        0.84739    0.15558    0.26755    1.000
    Si4886   Si       0.83932    0.21599    0.33183    1.000
    N4887    N        0.83359    0.25582    0.27148    1.000
    Si4888   Si       0.84391    0.07133    0.47725    1.000
    N4889    N        0.85901    0.11078    0.47186    1.000
    N4890    N        0.86978    0.04443    0.45207    1.000
    Si4891   Si       0.87054    0.12627    0.43092    1.000
    N4892    N        0.83516    0.19631    0.37131    1.000
    Si4893   Si       0.84110    0.15315    0.37349    1.000
    N4894    N        0.83217    0.14244    0.41656    1.000
    N4895    N        0.84813    0.18403    0.48348    1.000
    Si4896   Si       0.81910    0.21710    0.47844    1.000
    N4897    N        0.83914    0.25681    0.47341    1.000
    Si4898   Si       0.83970    0.14408    0.49272    1.000
    N4899    N        0.84338    0.06806    0.52170    1.000
    N4900    N        0.84800    0.09559    0.59295    1.000
    Si4901   Si       0.84818    0.02784    0.53412    1.000
    Si4902   Si       0.83483    0.09865    0.55092    1.000
    N4903    N        0.84764    0.13742    0.53564    1.000
    Si4904   Si       0.82885    0.19878    0.58978    1.000
    N4905    N        0.81578    0.15946    0.60195    1.000
    N4906    N        0.84560    0.01673    0.62324    1.000
    Si4907   Si       0.85732    0.03637    0.66042    1.000
    N4908    N        0.83166    0.12148    0.64865    1.000
    Si4909   Si       0.86666    0.10166    0.63130    1.000
    N4910    N        0.84063    0.09507    0.74090    1.000
    N4911    N        0.81612    0.03807    0.67315    1.000
    N4912    N        0.82714    0.21347    0.63145    1.000
    Si4913   Si       0.82825    0.16834    0.64614    1.000
    N4914    N        0.85068    0.24975    0.68966    1.000
    N4915    N        0.86672    0.17978    0.66636    1.000
    Si4916   Si       0.86431    0.24606    0.73095    1.000
    Si4917   Si       0.86091    0.22314    0.65673    1.000
    Si4918   Si       0.84203    0.08568    0.82205    1.000
    N4919    N        0.85398    0.05486    0.84939    1.000
    Si4920   Si       0.82022    0.03286    0.77065    1.000
    N4921    N        0.86486    0.03343    0.76366    1.000
    N4922    N        0.82258    0.11437    0.84791    1.000
    N4923    N        0.84165    0.16594    0.79898    1.000
    Si4924   Si       0.82701    0.15880    0.84088    1.000
    Si4925   Si       0.81917    0.18471    0.76604    1.000
    N4926    N        0.84257    0.21586    0.74927    1.000
    Si4927   Si       0.82675    0.08292    0.94038    1.000
    N4928    N        0.86139    0.06758    0.95557    1.000
    N4929    N        0.81766    0.12275    0.91980    1.000
    N4930    N        0.81587    0.15964    0.98626    1.000
    N4931    N        0.85566    0.17007    0.87330    1.000
    N4932    N        0.86745    0.15793    0.94338    1.000
    N4933    N        0.84170    0.22152    0.96520    1.000
    Si4934   Si       0.83813    0.15909    0.91128    1.000
    Si4935   Si       0.85297    0.18184    0.97754    1.000
    N4936    N        0.83999    0.29188    0.09202    1.000
    N4937    N        0.82999    0.26753    0.01528    1.000
    Si4938   Si       0.85742    0.32196    0.11845    1.000
    N4939    N        0.83092    0.35622    0.11732    1.000
    Si4940   Si       0.81320    0.30750    0.01300    1.000
    Si4941   Si       0.83840    0.39027    0.09106    1.000
    Si4942   Si       0.83852    0.46888    0.10173    1.000
    N4943    N        0.84841    0.42623    0.11804    1.000
    N4944    N        0.86972    0.46607    0.07002    1.000
    N4945    N        0.87144    0.38905    0.06198    1.000
    N4946    N        0.87391    0.42343    0.00051    1.000
    N4947    N        0.85728    0.33884    0.21057    1.000
    N4948    N        0.86261    0.30168    0.15684    1.000
    Si4949   Si       0.84452    0.26331    0.16153    1.000
    Si4950   Si       0.81832    0.34960    0.20616    1.000
    Si4951   Si       0.82152    0.49449    0.16650    1.000
    N4952    N        0.85622    0.42666    0.23950    1.000
    Si4953   Si       0.84409    0.42244    0.19760    1.000
    N4954    N        0.84957    0.49183    0.13466    1.000
    N4955    N        0.82416    0.46272    0.19330    1.000
    N4956    N        0.81458    0.39217    0.19200    1.000
    Si4957   Si       0.84528    0.28554    0.30075    1.000
    Si4958   Si       0.83344    0.34307    0.33992    1.000
    N4959    N        0.82293    0.32326    0.30351    1.000
    N4960    N        0.86775    0.36844    0.33313    1.000
    N4961    N        0.84611    0.31283    0.36729    1.000
    N4962    N        0.83155    0.25837    0.33347    1.000
    N4963    N        0.83597    0.47676    0.27749    1.000
    N4964    N        0.82495    0.42203    0.31591    1.000
    Si4965   Si       0.82286    0.45754    0.34692    1.000
    Si4966   Si       0.82573    0.43557    0.27045    1.000
    N4967    N        0.86338    0.46961    0.33715    1.000
    Si4968   Si       0.86683    0.41193    0.32862    1.000
    Si4969   Si       0.82906    0.27893    0.43547    1.000
    N4970    N        0.86000    0.35128    0.47010    1.000
    Si4971   Si       0.81543    0.34593    0.46764    1.000
    N4972    N        0.81771    0.25839    0.40017    1.000
    N4973    N        0.86983    0.28975    0.42869    1.000
    Si4974   Si       0.81167    0.47292    0.42818    1.000
    N4975    N        0.84331    0.46760    0.45819    1.000
    N4976    N        0.85644    0.41018    0.43232    1.000
    Si4977   Si       0.86647    0.43767    0.39986    1.000
    N4978    N        0.82677    0.45475    0.39169    1.000
    Si4979   Si       0.82232    0.41970    0.45540    1.000
    Si4980   Si       0.84405    0.35915    0.57638    1.000
    N4981    N        0.84919    0.28800    0.57449    1.000
    N4982    N        0.86629    0.34281    0.54326    1.000
    N4983    N        0.85881    0.35494    0.62053    1.000
    Si4984   Si       0.86693    0.28099    0.61430    1.000
    N4985    N        0.83919    0.39919    0.56379    1.000
    Si4986   Si       0.85976    0.40772    0.52516    1.000
    N4987    N        0.82560    0.40980    0.49777    1.000
    Si4988   Si       0.83048    0.28615    0.67892    1.000
    Si4989   Si       0.84864    0.35662    0.66337    1.000
    N4990    N        0.85342    0.32199    0.68802    1.000
    N4991    N        0.82935    0.27901    0.63622    1.000
    N4992    N        0.83955    0.39794    0.67770    1.000
    N4993    N        0.85838    0.45639    0.70120    1.000
    Si4994   Si       0.82504    0.48243    0.68873    1.000
    Si4995   Si       0.85639    0.41378    0.71525    1.000
    N4996    N        0.82804    0.39957    0.74545    1.000
    N4997    N        0.83938    0.28140    0.80665    1.000
    Si4998   Si       0.84963    0.29392    0.84753    1.000
    N4999    N        0.84000    0.34214    0.77423    1.000
    N5000    N        0.84258    0.33703    0.84186    1.000
    Si5001   Si       0.86164    0.30589    0.78055    1.000
    N5002    N        0.84453    0.40535    0.82876    1.000
    Si5003   Si       0.84523    0.49060    0.78787    1.000
    N5004    N        0.85594    0.44860    0.78284    1.000
    Si5005   Si       0.82398    0.41889    0.78748    1.000
    N5006    N        0.83805    0.51055    0.75124    1.000
    N5007    N        0.81234    0.49634    0.81877    1.000
    Si5008   Si       0.82954    0.36081    0.96238    1.000
    Si5009   Si       0.83057    0.30495    0.91458    1.000
    N5010    N        0.84132    0.32817    0.98723    1.000
    Si5011   Si       0.85038    0.26294    0.97600    1.000
    N5012    N        0.82005    0.27665    0.94619    1.000
    N5013    N        0.81709    0.28792    0.87594    1.000
    N5014    N        0.87374    0.31309    0.90476    1.000
    Si5015   Si       0.84334    0.42095    0.92563    1.000
    N5016    N        0.83070    0.45079    0.95305    1.000
    N5017    N        0.85991    0.38653    0.94459    1.000
    Si5018   Si       0.83038    0.42987    0.99046    1.000
    Si5019   Si       0.82203    0.48870    0.93438    1.000
    Si5020   Si       0.83564    0.61059    0.07948    1.000
    N5021    N        0.85080    0.58384    0.04991    1.000
    N5022    N        0.85984    0.71171    0.08250    1.000
    N5023    N        0.84231    0.65258    0.07890    1.000
    Si5024   Si       0.82194    0.69093    0.08570    1.000
    Si5025   Si       0.86299    0.75393    0.07565    1.000
    N5026    N        0.84673    0.59196    0.11918    1.000
    Si5027   Si       0.86239    0.60166    0.15851    1.000
    N5028    N        0.82646    0.53407    0.18281    1.000
    N5029    N        0.82814    0.60648    0.18739    1.000
    N5030    N        0.85796    0.53186    0.24190    1.000
    Si5031   Si       0.86839    0.53637    0.19969    1.000
    N5032    N        0.81698    0.68229    0.19093    1.000
    N5033    N        0.86129    0.73531    0.20500    1.000
    Si5034   Si       0.83736    0.70345    0.22255    1.000
    N5035    N        0.85668    0.67401    0.24629    1.000
    Si5036   Si       0.84385    0.55883    0.33984    1.000
    N5037    N        0.85210    0.61591    0.28662    1.000
    N5038    N        0.85455    0.54256    0.30288    1.000
    Si5039   Si       0.82998    0.51915    0.27427    1.000
    N5040    N        0.86391    0.59244    0.36197    1.000
    Si5041   Si       0.82751    0.64689    0.26741    1.000
    N5042    N        0.83587    0.72148    0.32294    1.000
    Si5043   Si       0.84870    0.70566    0.36009    1.000
    N5044    N        0.81390    0.72391    0.25301    1.000
    N5045    N        0.85272    0.52748    0.37216    1.000
    N5046    N        0.84132    0.56929    0.42993    1.000
    Si5047   Si       0.85576    0.59841    0.45705    1.000
    N5048    N        0.82508    0.62458    0.46662    1.000
    Si5049   Si       0.86548    0.56260    0.39528    1.000
    N5050    N        0.86949    0.58011    0.49440    1.000
    Si5051   Si       0.82484    0.67713    0.42216    1.000
    N5052    N        0.86750    0.68050    0.43463    1.000
    Si5053   Si       0.84875    0.71492    0.47613    1.000
    Si5054   Si       0.82604    0.65979    0.49227    1.000
    N5055    N        0.81579    0.70170    0.38841    1.000
    N5056    N        0.84957    0.60700    0.59222    1.000
    Si5057   Si       0.85219    0.56761    0.57715    1.000
    N5058    N        0.82475    0.56254    0.54480    1.000
    N5059    N        0.86275    0.54196    0.61172    1.000
    Si5060   Si       0.84311    0.54710    0.50937    1.000
    N5061    N        0.82223    0.71797    0.56560    1.000
    Si5062   Si       0.83709    0.69492    0.60163    1.000
    N5063    N        0.86307    0.68090    0.50334    1.000
    Si5064   Si       0.84708    0.74750    0.54323    1.000
    N5065    N        0.82950    0.74236    0.50255    1.000
    N5066    N        0.86709    0.67077    0.58188    1.000
    N5067    N        0.84602    0.51891    0.68226    1.000
    Si5068   Si       0.84864    0.55036    0.65332    1.000
    Si5069   Si       0.86798    0.52197    0.72122    1.000
    N5070    N        0.83096    0.62920    0.68786    1.000
    N5071    N        0.86800    0.56344    0.72959    1.000
    Si5072   Si       0.86446    0.64608    0.73888    1.000
    N5073    N        0.82532    0.68669    0.64584    1.000
    N5074    N        0.85228    0.68153    0.71602    1.000
    Si5075   Si       0.85047    0.66445    0.67289    1.000
    Si5076   Si       0.81760    0.70596    0.73059    1.000
    N5077    N        0.85239    0.57742    0.80034    1.000
    Si5078   Si       0.83772    0.57705    0.75775    1.000
    N5079    N        0.84383    0.53535    0.86266    1.000
    Si5080   Si       0.85523    0.62089    0.80131    1.000
    N5081    N        0.83304    0.62080    0.75781    1.000
    Si5082   Si       0.86790    0.54758    0.82768    1.000
    N5083    N        0.81578    0.64197    0.81601    1.000
    N5084    N        0.83450    0.73976    0.75416    1.000
    N5085    N        0.82522    0.68139    0.87284    1.000
    Si5086   Si       0.83510    0.54502    0.96409    1.000
    N5087    N        0.83107    0.58705    0.95875    1.000
    N5088    N        0.85464    0.51859    0.93456    1.000
    Si5089   Si       0.86376    0.60391    0.93423    1.000
    N5090    N        0.83912    0.62117    0.90217    1.000
    Si5091   Si       0.87100    0.53541    0.89771    1.000
    N5092    N        0.86650    0.54097    0.99252    1.000
    N5093    N        0.83056    0.65845    0.97743    1.000
    N5094    N        0.86301    0.73935    0.87520    1.000
    N5095    N        0.84566    0.71644    0.93590    1.000
    Si5096   Si       0.81792    0.69938    0.96361    1.000
    Si5097   Si       0.85689    0.65141    0.87391    1.000
    Si5098   Si       0.82911    0.71772    0.89460    1.000
    N5099    N        0.85294    0.85445    0.04207    1.000
    Si5100   Si       0.83335    0.86523    0.07815    1.000
    N5101    N        0.85507    0.83973    0.10818    1.000
    N5102    N        0.83046    0.77115    0.09597    1.000
    Si5103   Si       0.83162    0.86528    0.00501    1.000
    N5104    N        0.85737    0.76561    0.03398    1.000
    Si5105   Si       0.82026    0.76394    0.00971    1.000
    N5106    N        0.82859    0.97150    0.04496    1.000
    Si5107   Si       0.84633    0.93098    0.04363    1.000
    N5108    N        0.83722    0.90847    0.07951    1.000
    Si5109   Si       0.84078    0.99564    0.08044    1.000
    N5110    N        0.82678    0.90986    0.01007    1.000
    Si5111   Si       0.82120    0.93227    0.11297    1.000
    N5112    N        0.84390    0.96968    0.11487    1.000
    Si5113   Si       0.83627    0.80385    0.12480    1.000
    N5114    N        0.85954    0.79245    0.15958    1.000
    Si5115   Si       0.84902    0.87234    0.22944    1.000
    Si5116   Si       0.83495    0.76679    0.18674    1.000
    N5117    N        0.81849    0.85782    0.19207    1.000
    N5118    N        0.81705    0.78867    0.21748    1.000
    N5119    N        0.84261    0.96763    0.19595    1.000
    N5120    N        0.83633    0.91296    0.23987    1.000
    Si5121   Si       0.85996    0.96168    0.15590    1.000
    N5122    N        0.83935    0.91572    0.15152    1.000
    Si5123   Si       0.81406    0.94073    0.21456    1.000
    Si5124   Si       0.86865    0.99819    0.21488    1.000
    N5125    N        0.84181    0.84985    0.31405    1.000
    Si5126   Si       0.83455    0.82406    0.34840    1.000
    N5127    N        0.85785    0.78734    0.34281    1.000
    N5128    N        0.81608    0.85043    0.25226    1.000
    Si5129   Si       0.84265    0.76243    0.30757    1.000
    N5130    N        0.83602    0.96336    0.30067    1.000
    N5131    N        0.84853    0.92426    0.35181    1.000
    Si5132   Si       0.82315    0.95628    0.34173    1.000
    N5133    N        0.83038    0.98972    0.36707    1.000
    Si5134   Si       0.81739    0.93525    0.27476    1.000
    Si5135   Si       0.83570    0.00615    0.29107    1.000
    Si5136   Si       0.86140    0.77105    0.38454    1.000
    N5137    N        0.82262    0.77458    0.40274    1.000
    N5138    N        0.84800    0.84809    0.38156    1.000
    N5139    N        0.83864    0.82392    0.45093    1.000
    Si5140   Si       0.86659    0.83283    0.41827    1.000
    Si5141   Si       0.83070    0.84106    0.49185    1.000
    Si5142   Si       0.84451    0.93448    0.45048    1.000
    Si5143   Si       0.81884    0.98925    0.40911    1.000
    Si5144   Si       0.83697    0.89056    0.37954    1.000
    N5145    N        0.85274    0.90482    0.41833    1.000
    N5146    N        0.84994    0.97516    0.43602    1.000
    Si5147   Si       0.87088    0.00304    0.46276    1.000
    Si5148   Si       0.83933    0.81677    0.56315    1.000
    N5149    N        0.85139    0.81807    0.52107    1.000
    N5150    N        0.84483    0.77718    0.57563    1.000
    Si5151   Si       0.84761    0.87246    0.61061    1.000
    Si5152   Si       0.86551    0.76790    0.61293    1.000
    N5153    N        0.86560    0.83952    0.58963    1.000
    N5154    N        0.83793    0.88103    0.50272    1.000
    N5155    N        0.86197    0.95938    0.58602    1.000
    Si5156   Si       0.82196    0.94305    0.57794    1.000
    N5157    N        0.81973    0.89976    0.58237    1.000
    N5158    N        0.84638    0.00187    0.49992    1.000
    Si5159   Si       0.82477    0.82075    0.66196    1.000
    N5160    N        0.83975    0.83089    0.70087    1.000
    N5161    N        0.84943    0.78803    0.64602    1.000
    Si5162   Si       0.86590    0.86473    0.71272    1.000
    N5163    N        0.81674    0.85644    0.63576    1.000
    Si5164   Si       0.83778    0.80054    0.73139    1.000
    N5165    N        0.86102    0.89811    0.68697    1.000
    Si5166   Si       0.82140    0.91676    0.68498    1.000
    N5167    N        0.82997    0.95873    0.68801    1.000
    Si5168   Si       0.86854    0.97233    0.69758    1.000
    N5169    N        0.85372    0.87702    0.75420    1.000
    N5170    N        0.81776    0.76560    0.82344    1.000
    Si5171   Si       0.86139    0.76219    0.83604    1.000
    Si5172   Si       0.83241    0.91033    0.82886    1.000
    N5173    N        0.83214    0.94190    0.85774    1.000
    N5174    N        0.82524    0.99124    0.78604    1.000
    Si5175   Si       0.86642    0.99066    0.77167    1.000
    N5176    N        0.86978    0.89080    0.82246    1.000
    N5177    N        0.85949    0.85594    0.88069    1.000
    N5178    N        0.85848    0.84697    0.97555    1.000
    N5179    N        0.84495    0.80093    0.91644    1.000
    Si5180   Si       0.84896    0.80634    0.95856    1.000
    Si5181   Si       0.81638    0.85385    0.87543    1.000
    Si5182   Si       0.87247    0.81269    0.88722    1.000
    Si5183   Si       0.81796    0.96126    0.93675    1.000
    Si5184   Si       0.86805    0.95394    0.88038    1.000
    N5185    N        0.85887    0.95102    0.92334    1.000
    N5186    N        0.83499    0.98152    0.97282    1.000
    N5187    N        0.89852    0.06994    0.07897    1.000
    Si5188   Si       0.92612    0.09964    0.06404    1.000
    N5189    N        0.87984    0.01250    0.07219    1.000
    Si5190   Si       0.91804    0.03708    0.05738    1.000
    Si5191   Si       0.89646    0.13931    0.01304    1.000
    N5192    N        0.92699    0.13839    0.04464    1.000
    N5193    N        0.89038    0.18244    0.00282    1.000
    Si5194   Si       0.92924    0.23106    0.09147    1.000
    Si5195   Si       0.92468    0.09796    0.13890    1.000
    N5196    N        0.92020    0.05683    0.15139    1.000
    N5197    N        0.88129    0.04865    0.20950    1.000
    Si5198   Si       0.88217    0.04243    0.16424    1.000
    N5199    N        0.88874    0.11877    0.14523    1.000
    Si5200   Si       0.92044    0.03593    0.22588    1.000
    N5201    N        0.87344    0.12140    0.21513    1.000
    N5202    N        0.93346    0.17059    0.21350    1.000
    N5203    N        0.88218    0.17767    0.17781    1.000
    N5204    N        0.91817    0.20226    0.12205    1.000
    Si5205   Si       0.90399    0.13923    0.18690    1.000
    N5206    N        0.92533    0.23387    0.18932    1.000
    Si5207   Si       0.90443    0.20110    0.20838    1.000
    Si5208   Si       0.87743    0.19306    0.13836    1.000
    N5209    N        0.88363    0.20929    0.24530    1.000
    N5210    N        0.89412    0.08724    0.32901    1.000
    Si5211   Si       0.92484    0.06774    0.30531    1.000
    Si5212   Si       0.90487    0.10556    0.36768    1.000
    Si5213   Si       0.87489    0.12304    0.25825    1.000
    Si5214   Si       0.89445    0.01066    0.34361    1.000
    N5215    N        0.92979    0.05962    0.26075    1.000
    N5216    N        0.90588    0.14763    0.28270    1.000
    Si5217   Si       0.90443    0.18012    0.34996    1.000
    Si5218   Si       0.87949    0.18311    0.27922    1.000
    N5219    N        0.87683    0.19764    0.31975    1.000
    N5220    N        0.88234    0.14505    0.36373    1.000
    N5221    N        0.88881    0.02943    0.38301    1.000
    N5222    N        0.88619    0.09699    0.40517    1.000
    Si5223   Si       0.89263    0.05571    0.41712    1.000
    N5224    N        0.91950    0.20139    0.38622    1.000
    Si5225   Si       0.89089    0.18637    0.47257    1.000
    N5226    N        0.89737    0.22716    0.46370    1.000
    N5227    N        0.89871    0.15946    0.43715    1.000
    Si5228   Si       0.93345    0.24181    0.37861    1.000
    N5229    N        0.88331    0.02381    0.55664    1.000
    Si5230   Si       0.92707    0.03815    0.54230    1.000
    Si5231   Si       0.87748    0.16699    0.54696    1.000
    Si5232   Si       0.90594    0.21516    0.59747    1.000
    N5233    N        0.91083    0.14707    0.56674    1.000
    N5234    N        0.90517    0.16946    0.50981    1.000
    Si5235   Si       0.92775    0.14718    0.60567    1.000
    N5236    N        0.86847    0.19950    0.57546    1.000
    N5237    N        0.93168    0.18756    0.61902    1.000
    N5238    N        0.91274    0.06956    0.73189    1.000
    Si5239   Si       0.91124    0.08172    0.68827    1.000
    N5240    N        0.88024    0.07145    0.65824    1.000
    N5241    N        0.90227    0.12350    0.69842    1.000
    N5242    N        0.88199    0.01046    0.68280    1.000
    N5243    N        0.90362    0.22873    0.73536    1.000
    N5244    N        0.88767    0.24415    0.63039    1.000
    N5245    N        0.89845    0.13147    0.63210    1.000
    Si5246   Si       0.90169    0.15529    0.66960    1.000
    N5247    N        0.92081    0.03493    0.83156    1.000
    Si5248   Si       0.91519    0.10809    0.81683    1.000
    Si5249   Si       0.87758    0.07431    0.75692    1.000
    Si5250   Si       0.88816    0.03729    0.86382    1.000
    N5251    N        0.87811    0.09349    0.79853    1.000
    N5252    N        0.91930    0.16411    0.77221    1.000
    N5253    N        0.90163    0.14636    0.83371    1.000
    Si5254   Si       0.90673    0.23502    0.84077    1.000
    Si5255   Si       0.88509    0.16992    0.80106    1.000
    N5256    N        0.90012    0.21225    0.80462    1.000
    Si5257   Si       0.92276    0.20646    0.76573    1.000
    N5258    N        0.91459    0.20640    0.87275    1.000
    Si5259   Si       0.89853    0.16478    0.87312    1.000
    Si5260   Si       0.89684    0.04987    0.93906    1.000
    N5261    N        0.90346    0.06118    0.89563    1.000
    N5262    N        0.91834    0.12680    0.97553    1.000
    N5263    N        0.89792    0.00712    0.94414    1.000
    N5264    N        0.91517    0.13460    0.89894    1.000
    N5265    N        0.92618    0.18983    0.94238    1.000
    Si5266   Si       0.91008    0.14881    0.94051    1.000
    Si5267   Si       0.92936    0.19894    0.98499    1.000
    N5268    N        0.92569    0.25672    0.91948    1.000
    Si5269   Si       0.90515    0.29537    0.07085    1.000
    N5270    N        0.89562    0.33093    0.09990    1.000
    Si5271   Si       0.89788    0.35429    0.05959    1.000
    N5272    N        0.88826    0.31900    0.03855    1.000
    N5273    N        0.89356    0.25497    0.07955    1.000
    N5274    N        0.89131    0.48251    0.00963    1.000
    Si5275   Si       0.90216    0.48879    0.05082    1.000
    N5276    N        0.92070    0.43705    0.05053    1.000
    Si5277   Si       0.87816    0.43036    0.04417    1.000
    N5278    N        0.91219    0.39909    0.11651    1.000
    Si5279   Si       0.92278    0.35772    0.12413    1.000
    N5280    N        0.92323    0.30348    0.19154    1.000
    Si5281   Si       0.88694    0.32596    0.18314    1.000
    N5282    N        0.90997    0.35775    0.16594    1.000
    N5283    N        0.89369    0.27779    0.24119    1.000
    Si5284   Si       0.92950    0.26911    0.21530    1.000
    Si5285   Si       0.91938    0.48848    0.21644    1.000
    Si5286   Si       0.88723    0.43011    0.13701    1.000
    N5287    N        0.89080    0.50073    0.18663    1.000
    Si5288   Si       0.91803    0.39551    0.18836    1.000
    N5289    N        0.91254    0.38647    0.23084    1.000
    Si5290   Si       0.89188    0.49771    0.14298    1.000
    N5291    N        0.92396    0.45265    0.24032    1.000
    N5292    N        0.91585    0.46378    0.13231    1.000
    N5293    N        0.88161    0.41982    0.17713    1.000
    N5294    N        0.88761    0.29191    0.30128    1.000
    Si5295   Si       0.91197    0.29771    0.33496    1.000
    Si5296   Si       0.92268    0.29170    0.27202    1.000
    N5297    N        0.92422    0.33571    0.35140    1.000
    Si5298   Si       0.90221    0.37050    0.36729    1.000
    N5299    N        0.89086    0.42751    0.29445    1.000
    Si5300   Si       0.89618    0.42028    0.25262    1.000
    N5301    N        0.90229    0.50077    0.28890    1.000
    N5302    N        0.88460    0.41406    0.36794    1.000
    Si5303   Si       0.87502    0.46909    0.29668    1.000
    Si5304   Si       0.88068    0.49548    0.36936    1.000
    N5305    N        0.92053    0.50962    0.35344    1.000
    N5306    N        0.90511    0.27429    0.37034    1.000
    Si5307   Si       0.88064    0.37514    0.43769    1.000
    N5308    N        0.88853    0.34994    0.40330    1.000
    Si5309   Si       0.88328    0.27037    0.46568    1.000
    Si5310   Si       0.88226    0.30745    0.39299    1.000
    Si5311   Si       0.87402    0.47362    0.48800    1.000
    N5312    N        0.89478    0.47035    0.40294    1.000
    N5313    N        0.92021    0.39184    0.44523    1.000
    Si5314   Si       0.92889    0.47207    0.42965    1.000
    N5315    N        0.91524    0.47221    0.47140    1.000
    Si5316   Si       0.93124    0.38607    0.48791    1.000
    N5317    N        0.92041    0.29941    0.55382    1.000
    N5318    N        0.88722    0.29599    0.50248    1.000
    Si5319   Si       0.87698    0.30114    0.54543    1.000
    Si5320   Si       0.88760    0.34326    0.50323    1.000
    N5321    N        0.93010    0.35926    0.59766    1.000
    N5322    N        0.90473    0.30443    0.62300    1.000
    Si5323   Si       0.93017    0.28667    0.51193    1.000
    N5324    N        0.89540    0.38803    0.51273    1.000
    N5325    N        0.91208    0.43221    0.59549    1.000
    Si5326   Si       0.90795    0.45629    0.55926    1.000
    N5327    N        0.90107    0.49693    0.57376    1.000
    N5328    N        0.88026    0.44897    0.52499    1.000
    Si5329   Si       0.90136    0.34873    0.62785    1.000
    N5330    N        0.91456    0.28340    0.69186    1.000
    Si5331   Si       0.91762    0.27232    0.64996    1.000
    Si5332   Si       0.88801    0.31388    0.71358    1.000
    N5333    N        0.89884    0.36780    0.66510    1.000
    N5334    N        0.91531    0.33786    0.74120    1.000
    N5335    N        0.86917    0.28821    0.74364    1.000
    Si5336   Si       0.92323    0.39864    0.68689    1.000
    N5337    N        0.89717    0.40185    0.72086    1.000
    Si5338   Si       0.89679    0.47169    0.68515    1.000
    N5339    N        0.92338    0.43933    0.67379    1.000
    N5340    N        0.90770    0.50292    0.71261    1.000
    N5341    N        0.89790    0.48402    0.64227    1.000
    Si5342   Si       0.92805    0.45383    0.63146    1.000
    N5343    N        0.89446    0.32120    0.80925    1.000
    N5344    N        0.88245    0.26592    0.85832    1.000
    N5345    N        0.89130    0.37662    0.86384    1.000
    Si5346   Si       0.91515    0.38054    0.75431    1.000
    Si5347   Si       0.93005    0.30584    0.82983    1.000
    Si5348   Si       0.87763    0.36064    0.82301    1.000
    N5349    N        0.92736    0.31317    0.87164    1.000
    N5350    N        0.89623    0.38857    0.79318    1.000
    Si5351   Si       0.89154    0.43042    0.79926    1.000
    N5352    N        0.90421    0.44039    0.84103    1.000
    Si5353   Si       0.91994    0.49886    0.79656    1.000
    N5354    N        0.92500    0.45550    0.78612    1.000
    Si5355   Si       0.87286    0.41680    0.85999    1.000
    N5356    N        0.88987    0.28210    0.97306    1.000
    N5357    N        0.90749    0.35152    0.98320    1.000
    Si5358   Si       0.90325    0.28249    0.89367    1.000
    Si5359   Si       0.90075    0.34589    0.89258    1.000
    Si5360   Si       0.93022    0.26921    0.96180    1.000
    Si5361   Si       0.88280    0.31900    0.99627    1.000
    N5362    N        0.92616    0.41443    0.96813    1.000
    N5363    N        0.87486    0.43775    0.89837    1.000
    Si5364   Si       0.90620    0.46992    0.90910    1.000
    N5365    N        0.90618    0.47755    0.95118    1.000
    N5366    N        0.90093    0.50698    0.88633    1.000
    Si5367   Si       0.90896    0.45069    0.98588    1.000
    Si5368   Si       0.89192    0.39038    0.97463    1.000
    N5369    N        0.91264    0.58517    0.01754    1.000
    N5370    N        0.89940    0.53315    0.05384    1.000
    Si5371   Si       0.91890    0.62482    0.03381    1.000
    Si5372   Si       0.87939    0.56114    0.02817    1.000
    Si5373   Si       0.92920    0.53297    0.08481    1.000
    N5374    N        0.90926    0.65845    0.09815    1.000
    N5375    N        0.88351    0.64734    0.02960    1.000
    Si5376   Si       0.87997    0.67582    0.06716    1.000
    N5377    N        0.91769    0.69840    0.05174    1.000
    Si5378   Si       0.92304    0.70561    0.00959    1.000
    N5379    N        0.92571    0.75100    0.02116    1.000
    N5380    N        0.90962    0.53110    0.12406    1.000
    N5381    N        0.88684    0.56911    0.17723    1.000
    Si5382   Si       0.92210    0.56550    0.15130    1.000
    N5383    N        0.92766    0.59945    0.12582    1.000
    Si5384   Si       0.89964    0.67258    0.24252    1.000
    Si5385   Si       0.91731    0.63824    0.13663    1.000
    N5386    N        0.88295    0.63823    0.16247    1.000
    Si5387   Si       0.90546    0.73437    0.20019    1.000
    N5388    N        0.92609    0.75426    0.23354    1.000
    N5389    N        0.91484    0.69176    0.20473    1.000
    N5390    N        0.91719    0.75445    0.16352    1.000
    N5391    N        0.91065    0.57442    0.27735    1.000
    Si5392   Si       0.89262    0.61350    0.27954    1.000
    Si5393   Si       0.88655    0.53884    0.27260    1.000
    Si5394   Si       0.88679    0.62653    0.34912    1.000
    N5395    N        0.90975    0.63888    0.31269    1.000
    N5396    N        0.91447    0.69838    0.27278    1.000
    Si5397   Si       0.91954    0.74144    0.27422    1.000
    N5398    N        0.87398    0.66887    0.35978    1.000
    N5399    N        0.88509    0.76296    0.29098    1.000
    N5400    N        0.91527    0.63314    0.24788    1.000
    N5401    N        0.90952    0.56124    0.39762    1.000
    N5402    N        0.89178    0.61543    0.43921    1.000
    Si5403   Si       0.92194    0.60001    0.41175    1.000
    N5404    N        0.92261    0.62906    0.37784    1.000
    N5405    N        0.87431    0.73171    0.38437    1.000
    N5406    N        0.88076    0.73811    0.45886    1.000
    Si5407   Si       0.91723    0.67308    0.37166    1.000
    N5408    N        0.93221    0.75011    0.42378    1.000
    Si5409   Si       0.89181    0.71756    0.42208    1.000
    Si5410   Si       0.90345    0.65699    0.44388    1.000
    N5411    N        0.92387    0.68732    0.41320    1.000
    Si5412   Si       0.90122    0.59332    0.52376    1.000
    Si5413   Si       0.90085    0.52366    0.53837    1.000
    N5414    N        0.88901    0.56329    0.55307    1.000
    N5415    N        0.91811    0.60357    0.60365    1.000
    Si5416   Si       0.89676    0.51411    0.61352    1.000
    Si5417   Si       0.88898    0.63127    0.58539    1.000
    N5418    N        0.89566    0.63144    0.54178    1.000
    N5419    N        0.86979    0.51243    0.50887    1.000
    N5420    N        0.91778    0.69995    0.54065    1.000
    Si5421   Si       0.88194    0.67254    0.54004    1.000
    Si5422   Si       0.92620    0.74119    0.53324    1.000
    N5423    N        0.92952    0.66377    0.59476    1.000
    Si5424   Si       0.90218    0.69224    0.61686    1.000
    N5425    N        0.87027    0.72460    0.61332    1.000
    N5426    N        0.88403    0.57643    0.66637    1.000
    Si5427   Si       0.91493    0.58148    0.63771    1.000
    Si5428   Si       0.89465    0.58595    0.70609    1.000
    N5429    N        0.89579    0.62907    0.71475    1.000
    N5430    N        0.92747    0.54137    0.62727    1.000
    N5431    N        0.88875    0.66367    0.65191    1.000
    Si5432   Si       0.91677    0.64612    0.67959    1.000
    N5433    N        0.90658    0.56092    0.84602    1.000
    Si5434   Si       0.91112    0.60556    0.85015    1.000
    N5435    N        0.88049    0.51147    0.80420    1.000
    N5436    N        0.87333    0.62410    0.84349    1.000
    Si5437   Si       0.93135    0.52885    0.86488    1.000
    N5438    N        0.88293    0.64856    0.77861    1.000
    Si5439   Si       0.91846    0.72503    0.79598    1.000
    N5440    N        0.88157    0.74794    0.80245    1.000
    Si5441   Si       0.92396    0.65492    0.79132    1.000
    N5442    N        0.90942    0.71946    0.75229    1.000
    Si5443   Si       0.87755    0.74842    0.75632    1.000
    N5444    N        0.93022    0.69019    0.81712    1.000
    N5445    N        0.88921    0.57168    0.91630    1.000
    N5446    N        0.88842    0.62872    0.95903    1.000
    Si5447   Si       0.89580    0.51268    0.97663    1.000
    Si5448   Si       0.93133    0.57907    0.91445    1.000
    N5449    N        0.92829    0.61469    0.88955    1.000
    N5450    N        0.89262    0.67768    0.88438    1.000
    Si5451   Si       0.89854    0.72038    0.89115    1.000
    N5452    N        0.88863    0.69854    0.98440    1.000
    Si5453   Si       0.88145    0.73160    0.95699    1.000
    N5454    N        0.91581    0.72685    0.93099    1.000
    Si5455   Si       0.87240    0.65866    0.98846    1.000
    Si5456   Si       0.89554    0.85195    0.03474    1.000
    N5457    N        0.91691    0.84950    0.07222    1.000
    Si5458   Si       0.89810    0.84850    0.11003    1.000
    Si5459   Si       0.89298    0.77875    0.01145    1.000
    N5460    N        0.91164    0.81711    0.01487    1.000
    N5461    N        0.90299    0.76615    0.08198    1.000
    N5462    N        0.90708    0.88403    0.00714    1.000
    Si5463   Si       0.90345    0.97583    0.06082    1.000
    Si5464   Si       0.91556    0.92701    0.00969    1.000
    N5465    N        0.88762    0.94202    0.04081    1.000
    N5466    N        0.92439    0.95824    0.09529    1.000
    N5467    N        0.92425    0.00173    0.03152    1.000
    Si5468   Si       0.90340    0.79716    0.16448    1.000
    Si5469   Si       0.91100    0.85201    0.22049    1.000
    N5470    N        0.91756    0.81138    0.20233    1.000
    N5471    N        0.92359    0.82410    0.13594    1.000
    N5472    N        0.88179    0.87407    0.19483    1.000
    N5473    N        0.90925    0.99223    0.23150    1.000
    N5474    N        0.88657    0.99933    0.16734    1.000
    Si5475   Si       0.92500    0.97144    0.17038    1.000
    N5476    N        0.89828    0.93915    0.16269    1.000
    Si5477   Si       0.88010    0.89961    0.16210    1.000
    N5478    N        0.90000    0.88810    0.12343    1.000
    Si5479   Si       0.89629    0.78807    0.32505    1.000
    N5480    N        0.90827    0.82616    0.31248    1.000
    Si5481   Si       0.88188    0.85859    0.29741    1.000
    N5482    N        0.88187    0.85861    0.25523    1.000
    N5483    N        0.92417    0.76762    0.35355    1.000
    N5484    N        0.89748    0.89803    0.31017    1.000
    N5485    N        0.90947    0.96772    0.34437    1.000
    Si5486   Si       0.89061    0.92656    0.34323    1.000
    N5487    N        0.89979    0.85946    0.43021    1.000
    N5488    N        0.88860    0.79894    0.40496    1.000
    N5489    N        0.91296    0.80316    0.48019    1.000
    Si5490   Si       0.92313    0.84086    0.46176    1.000
    Si5491   Si       0.92727    0.78165    0.39540    1.000
    Si5492   Si       0.91815    0.76212    0.46508    1.000
    N5493    N        0.91267    0.99185    0.46551    1.000
    Si5494   Si       0.89655    0.90052    0.41884    1.000
    Si5495   Si       0.91626    0.94980    0.47291    1.000
    N5496    N        0.92604    0.92488    0.43831    1.000
    N5497    N        0.87661    0.93016    0.48088    1.000
    N5498    N        0.90803    0.90614    0.37740    1.000
    Si5499   Si       0.90752    0.82421    0.58882    1.000
    Si5500   Si       0.89095    0.80082    0.51742    1.000
    N5501    N        0.90559    0.78357    0.60630    1.000
    N5502    N        0.91790    0.82030    0.54526    1.000
    N5503    N        0.88836    0.75895    0.52935    1.000
    N5504    N        0.91572    0.86798    0.49606    1.000
    Si5505   Si       0.87554    0.00183    0.59592    1.000
    N5506    N        0.88983    0.90640    0.54532    1.000
    Si5507   Si       0.88723    0.92373    0.58384    1.000
    Si5508   Si       0.87961    0.89257    0.50579    1.000
    N5509    N        0.91520    0.00398    0.61761    1.000
    N5510    N        0.92711    0.93698    0.58258    1.000
    N5511    N        0.88091    0.90034    0.62031    1.000
    N5512    N        0.90706    0.85264    0.71810    1.000
    Si5513   Si       0.89417    0.91048    0.66044    1.000
    N5514    N        0.89612    0.95329    0.66849    1.000
    N5515    N        0.87735    0.96433    0.73793    1.000
    Si5516   Si       0.91367    0.99290    0.65878    1.000
    N5517    N        0.90722    0.83540    0.78842    1.000
    Si5518   Si       0.91370    0.82081    0.82880    1.000
    N5519    N        0.92260    0.85890    0.84859    1.000
    Si5520   Si       0.88822    0.87755    0.78459    1.000
    N5521    N        0.87744    0.80120    0.84486    1.000
    Si5522   Si       0.88830    0.88222    0.86067    1.000
    N5523    N        0.87866    0.78910    0.74107    1.000
    Si5524   Si       0.91096    0.81982    0.74623    1.000
    N5525    N        0.90153    0.97606    0.79599    1.000
    N5526    N        0.91370    0.90865    0.77018    1.000
    Si5527   Si       0.91425    0.99186    0.83281    1.000
    Si5528   Si       0.91202    0.95196    0.76129    1.000
    N5529    N        0.88426    0.99192    0.86560    1.000
    Si5530   Si       0.90140    0.86255    0.97102    1.000
    N5531    N        0.90957    0.79926    0.90323    1.000
    N5532    N        0.87459    0.77338    0.97203    1.000
    N5533    N        0.90097    0.94413    0.97257    1.000
    Si5534   Si       0.87263    0.97621    0.95824    1.000
    Si5535   Si       0.89981    0.92718    0.92784    1.000
    N5536    N        0.91149    0.88643    0.93411    1.000
    N5537    N        0.89690    0.92270    0.87797    1.000
    N5538    N        0.95593    0.02766    0.08214    1.000
    N5539    N        0.94691    0.10499    0.10322    1.000
    N5540    N        0.93626    0.07373    0.02860    1.000
    Si5541   Si       0.98657    0.11974    0.09718    1.000
    Si5542   Si       0.95692    0.24784    0.03011    1.000
    Si5543   Si       0.95537    0.17108    0.04498    1.000
    N5544    N        0.94929    0.21462    0.05620    1.000
    N5545    N        0.96344    0.17600    0.00236    1.000
    N5546    N        0.98609    0.15699    0.07357    1.000
    N5547    N        0.95031    0.25724    0.12135    1.000
    Si5548   Si       0.97772    0.11836    0.19733    1.000
    Si5549   Si       0.95812    0.03563    0.15819    1.000
    N5550    N        0.94141    0.11333    0.17522    1.000
    N5551    N        0.95605    0.03165    0.20349    1.000
    N5552    N        0.96865    0.11992    0.24018    1.000
    Si5553   Si       0.94284    0.22528    0.15076    1.000
    Si5554   Si       0.97071    0.16531    0.23529    1.000
    N5555    N        0.98157    0.20630    0.15278    1.000
    Si5556   Si       0.96923    0.08330    0.26236    1.000
    N5557    N        0.95595    0.09965    0.30042    1.000
    Si5558   Si       0.97319    0.02564    0.33991    1.000
    Si5559   Si       0.98046    0.09411    0.33679    1.000
    N5560    N        0.94910    0.09536    0.36914    1.000
    N5561    N        0.93208    0.03178    0.32863    1.000
    Si5562   Si       0.97330    0.20017    0.31940    1.000
    N5563    N        0.97839    0.16924    0.28244    1.000
    Si5564   Si       0.94547    0.14177    0.29861    1.000
    N5565    N        0.95455    0.23385    0.34068    1.000
    Si5566   Si       0.97376    0.15387    0.36561    1.000
    N5567    N        0.94472    0.16576    0.33451    1.000
    N5568    N        0.97808    0.03113    0.38119    1.000
    Si5569   Si       0.94228    0.02678    0.46326    1.000
    Si5570   Si       0.96430    0.06792    0.39921    1.000
    N5571    N        0.96703    0.10887    0.46874    1.000
    N5572    N        0.93416    0.05560    0.42803    1.000
    Si5573   Si       0.98912    0.12424    0.43270    1.000
    N5574    N        0.98647    0.24953    0.46852    1.000
    N5575    N        0.96446    0.15180    0.40771    1.000
    Si5576   Si       0.94091    0.23451    0.47246    1.000
    N5577    N        0.95435    0.19759    0.45524    1.000
    Si5578   Si       0.93511    0.17821    0.42042    1.000
    N5579    N        0.96657    0.25255    0.40222    1.000
    Si5580   Si       0.96563    0.09365    0.57420    1.000
    N5581    N        0.96013    0.11833    0.60799    1.000
    N5582    N        0.95200    0.10728    0.53473    1.000
    N5583    N        0.94667    0.05503    0.57903    1.000
    N5584    N        0.94030    0.04724    0.50171    1.000
    Si5585   Si       0.97004    0.08276    0.50273    1.000
    Si5586   Si       0.95047    0.01273    0.59388    1.000
    N5587    N        0.96550    0.18177    0.53592    1.000
    Si5588   Si       0.95983    0.22414    0.54443    1.000
    N5589    N        0.94195    0.23780    0.58009    1.000
    Si5590   Si       0.93701    0.15101    0.53224    1.000
    N5591    N        0.93571    0.24453    0.51503    1.000
    N5592    N        0.94923    0.07505    0.66585    1.000
    Si5593   Si       0.97497    0.10233    0.64334    1.000
    N5594    N        0.97052    0.12118    0.73250    1.000
    Si5595   Si       0.97462    0.04023    0.68203    1.000
    N5596    N        0.98412    0.06234    0.71966    1.000
    N5597    N        0.96688    0.24113    0.70696    1.000
    Si5598   Si       0.95467    0.20432    0.65254    1.000
    N5599    N        0.95298    0.24865    0.64646    1.000
    N5600    N        0.94170    0.17428    0.68064    1.000
    Si5601   Si       0.97347    0.15449    0.70261    1.000
    N5602    N        0.94681    0.09417    0.84566    1.000
    Si5603   Si       0.95836    0.05433    0.81995    1.000
    N5604    N        0.97027    0.04434    0.77990    1.000
    N5605    N        0.94224    0.10235    0.78304    1.000
    Si5606   Si       0.98724    0.10540    0.86347    1.000
    N5607    N        0.98795    0.03671    0.84744    1.000
    Si5608   Si       0.95389    0.07732    0.74861    1.000
    Si5609   Si       0.95673    0.14185    0.77080    1.000
    N5610    N        0.96126    0.22093    0.77002    1.000
    N5611    N        0.98878    0.15348    0.79489    1.000
    Si5612   Si       0.94570    0.09229    0.98896    1.000
    N5613    N        0.97383    0.08634    0.89948    1.000
    Si5614   Si       0.97094    0.05764    0.93016    1.000
    N5615    N        0.96323    0.01690    0.91120    1.000
    N5616    N        0.98491    0.11086    0.98625    1.000
    N5617    N        0.93721    0.06549    0.95518    1.000
    Si5618   Si       0.92935    0.09521    0.88765    1.000
    Si5619   Si       0.98751    0.15185    0.97637    1.000
    Si5620   Si       0.93831    0.21633    0.90875    1.000
    N5621    N        0.94193    0.23923    0.98982    1.000
    N5622    N        0.98276    0.21610    0.90047    1.000
    N5623    N        0.94368    0.28515    0.05333    1.000
    N5624    N        0.93787    0.37024    0.06794    1.000
    Si5625   Si       0.97587    0.37106    0.04738    1.000
    Si5626   Si       0.98253    0.30097    0.04938    1.000
    N5627    N        0.96917    0.43537    0.09537    1.000
    Si5628   Si       0.96321    0.45488    0.04488    1.000
    Si5629   Si       0.95230    0.47206    0.11177    1.000
    N5630    N        0.94148    0.48971    0.07233    1.000
    N5631    N        0.97777    0.40851    0.02812    1.000
    Si5632   Si       0.93511    0.41168    0.08163    1.000
    N5633    N        0.95310    0.46018    0.99947    1.000
    Si5634   Si       0.95513    0.32554    0.17585    1.000
    N5635    N        0.96798    0.35379    0.20475    1.000
    N5636    N        0.96022    0.33498    0.13132    1.000
    Si5637   Si       0.98551    0.28225    0.12624    1.000
    Si5638   Si       0.95022    0.36782    0.24219    1.000
    N5639    N        0.95779    0.48768    0.19181    1.000
    Si5640   Si       0.97903    0.45043    0.20110    1.000
    N5641    N        0.95675    0.41587    0.18837    1.000
    N5642    N        0.98666    0.49679    0.12465    1.000
    Si5643   Si       0.98990    0.38631    0.18587    1.000
    N5644    N        0.94958    0.29020    0.31145    1.000
    Si5645   Si       0.96432    0.35335    0.35827    1.000
    Si5646   Si       0.97293    0.32217    0.29386    1.000
    N5647    N        0.94087    0.33120    0.26443    1.000
    N5648    N        0.97834    0.35752    0.31849    1.000
    Si5649   Si       0.98534    0.26226    0.32026    1.000
    N5650    N        0.95321    0.26409    0.25064    1.000
    N5651    N        0.96715    0.40037    0.26644    1.000
    N5652    N        0.96031    0.46623    0.30455    1.000
    Si5653   Si       0.95855    0.44437    0.26666    1.000
    Si5654   Si       0.93790    0.50105    0.31450    1.000
    Si5655   Si       0.97107    0.27621    0.43963    1.000
    Si5656   Si       0.97412    0.33111    0.48422    1.000
    N5657    N        0.93187    0.34357    0.49166    1.000
    N5658    N        0.93215    0.27715    0.46022    1.000
    N5659    N        0.98496    0.37955    0.43658    1.000
    N5660    N        0.99019    0.31536    0.44706    1.000
    Si5661   Si       0.95385    0.40191    0.41822    1.000
    N5662    N        0.96845    0.40533    0.49701    1.000
    N5663    N        0.94543    0.38707    0.37773    1.000
    N5664    N        0.98220    0.48216    0.47608    1.000
    N5665    N        0.96284    0.44488    0.41647    1.000
    N5666    N        0.97440    0.29968    0.60040    1.000
    N5667    N        0.97471    0.29679    0.51314    1.000
    Si5668   Si       0.93535    0.31595    0.58914    1.000
    Si5669   Si       0.97079    0.25685    0.60504    1.000
    Si5670   Si       0.94436    0.39906    0.59450    1.000
    N5671    N        0.94650    0.45777    0.53872    1.000
    Si5672   Si       0.97615    0.42704    0.53370    1.000
    N5673    N        0.97506    0.39940    0.56502    1.000
    Si5674   Si       0.94606    0.48305    0.50254    1.000
    N5675    N        0.98308    0.34252    0.74116    1.000
    Si5676   Si       0.97945    0.26893    0.67687    1.000
    N5677    N        0.96377    0.38103    0.68264    1.000
    Si5678   Si       0.93135    0.26001    0.72396    1.000
    N5679    N        0.96679    0.42072    0.62722    1.000
    N5680    N        0.96156    0.48281    0.62616    1.000
    N5681    N        0.96194    0.32024    0.80486    1.000
    Si5682   Si       0.95131    0.32165    0.76036    1.000
    N5683    N        0.94606    0.27876    0.75900    1.000
    N5684    N        0.97607    0.36037    0.85517    1.000
    N5685    N        0.93836    0.26049    0.82740    1.000
    Si5686   Si       0.96484    0.25898    0.79257    1.000
    Si5687   Si       0.96088    0.43190    0.79072    1.000
    N5688    N        0.95377    0.39771    0.76564    1.000
    N5689    N        0.96994    0.42987    0.83241    1.000
    Si5690   Si       0.94259    0.45933    0.84912    1.000
    N5691    N        0.94468    0.50162    0.83390    1.000
    N5692    N        0.97865    0.37369    0.96798    1.000
    N5693    N        0.95843    0.30413    0.96411    1.000
    Si5694   Si       0.96217    0.33518    0.88741    1.000
    Si5695   Si       0.94512    0.34580    0.96148    1.000
    N5696    N        0.93543    0.35262    0.91816    1.000
    N5697    N        0.98753    0.40849    0.89933    1.000
    Si5698   Si       0.96871    0.49317    0.97419    1.000
    N5699    N        0.98193    0.49501    0.93213    1.000
    N5700    N        0.94662    0.46067    0.89207    1.000
    Si5701   Si       0.98548    0.45380    0.91268    1.000
    Si5702   Si       0.96715    0.42044    0.98611    1.000
    N5703    N        0.96407    0.55597    0.08934    1.000
    Si5704   Si       0.95935    0.59944    0.09811    1.000
    N5705    N        0.95410    0.62117    0.05977    1.000
    N5706    N        0.98455    0.57316    0.00989    1.000
    Si5707   Si       0.97766    0.64404    0.03137    1.000
    N5708    N        0.94367    0.64456    0.00200    1.000
    Si5709   Si       0.94494    0.68062    0.08249    1.000
    N5710    N        0.94509    0.71767    0.10500    1.000
    N5711    N        0.97987    0.67982    0.05452    1.000
    Si5712   Si       0.97360    0.75109    0.01546    1.000
    N5713    N        0.97508    0.75664    0.05889    1.000
    Si5714   Si       0.93249    0.73941    0.06418    1.000
    N5715    N        0.95861    0.55874    0.17293    1.000
    Si5716   Si       0.96848    0.52791    0.20472    1.000
    N5717    N        0.92829    0.52782    0.23412    1.000
    Si5718   Si       0.95208    0.73945    0.14207    1.000
    N5719    N        0.96770    0.71539    0.17368    1.000
    Si5720   Si       0.95336    0.67878    0.19037    1.000
    N5721    N        0.95350    0.65151    0.15668    1.000
    N5722    N        0.97226    0.65292    0.22067    1.000
    N5723    N        0.95842    0.53760    0.30263    1.000
    Si5724   Si       0.94791    0.55305    0.26357    1.000
    N5725    N        0.97307    0.58888    0.25999    1.000
    Si5726   Si       0.98297    0.56642    0.32863    1.000
    N5727    N        0.98130    0.61113    0.33767    1.000
    Si5728   Si       0.95862    0.62856    0.25384    1.000
    N5729    N        0.97677    0.54702    0.36721    1.000
    Si5730   Si       0.95172    0.73649    0.34383    1.000
    N5731    N        0.97507    0.65932    0.28368    1.000
    N5732    N        0.93849    0.69462    0.33914    1.000
    N5733    N        0.95542    0.74972    0.29882    1.000
    Si5734   Si       0.93453    0.67290    0.30184    1.000
    Si5735   Si       0.93801    0.53261    0.38520    1.000
    N5736    N        0.96644    0.60003    0.41236    1.000
    Si5737   Si       0.96669    0.62380    0.37753    1.000
    Si5738   Si       0.98394    0.51296    0.44557    1.000
    N5739    N        0.98291    0.55141    0.46396    1.000
    Si5740   Si       0.95865    0.62895    0.49550    1.000
    N5741    N        0.94985    0.50823    0.41956    1.000
    Si5742   Si       0.96424    0.67562    0.43140    1.000
    N5743    N        0.94377    0.74228    0.49403    1.000
    N5744    N        0.98258    0.66144    0.39360    1.000
    Si5745   Si       0.98532    0.73678    0.48120    1.000
    N5746    N        0.94114    0.65436    0.46346    1.000
    N5747    N        0.98387    0.73436    0.37551    1.000
    Si5748   Si       0.96583    0.55825    0.50394    1.000
    N5749    N        0.93798    0.52370    0.51540    1.000
    N5750    N        0.93957    0.59315    0.50444    1.000
    N5751    N        0.98507    0.61759    0.58735    1.000
    Si5752   Si       0.95287    0.62899    0.61469    1.000
    N5753    N        0.97127    0.64672    0.53278    1.000
    Si5754   Si       0.94804    0.67230    0.55695    1.000
    N5755    N        0.95538    0.75132    0.56500    1.000
    N5756    N        0.98408    0.69090    0.57268    1.000
    Si5757   Si       0.94099    0.75852    0.60814    1.000
    N5758    N        0.93409    0.56767    0.71133    1.000
    N5759    N        0.94093    0.61344    0.65970    1.000
    Si5760   Si       0.96800    0.52637    0.62972    1.000
    Si5761   Si       0.96469    0.58436    0.68853    1.000
    Si5762   Si       0.94130    0.52561    0.72919    1.000
    N5763    N        0.98170    0.61917    0.70670    1.000
    N5764    N        0.98206    0.51032    0.72134    1.000
    Si5765   Si       0.94270    0.69608    0.73115    1.000
    N5766    N        0.94079    0.67890    0.69133    1.000
    Si5767   Si       0.95977    0.70027    0.65712    1.000
    N5768    N        0.97031    0.72839    0.72810    1.000
    N5769    N        0.97594    0.66281    0.63711    1.000
    Si5770   Si       0.98546    0.63819    0.74351    1.000
    Si5771   Si       0.99321    0.64163    0.67096    1.000
    N5772    N        0.93594    0.72151    0.62971    1.000
    Si5773   Si       0.97715    0.60740    0.81279    1.000
    N5774    N        0.94303    0.52811    0.77259    1.000
    Si5775   Si       0.97079    0.53294    0.80608    1.000
    N5776    N        0.98174    0.56759    0.83015    1.000
    N5777    N        0.93645    0.61852    0.81568    1.000
    N5778    N        0.95115    0.66210    0.75777    1.000
    Si5779   Si       0.95619    0.70355    0.85010    1.000
    N5780    N        0.95033    0.75268    0.79300    1.000
    N5781    N        0.93134    0.73598    0.86707    1.000
    N5782    N        0.94195    0.59038    0.95526    1.000
    N5783    N        0.95411    0.54848    0.89582    1.000
    Si5784   Si       0.94424    0.56753    0.99293    1.000
    N5785    N        0.93909    0.52674    0.97906    1.000
    Si5786   Si       0.93157    0.63103    0.96343    1.000
    N5787    N        0.96359    0.67148    0.87804    1.000
    N5788    N        0.96274    0.71350    0.98791    1.000
    N5789    N        0.93842    0.66475    0.93672    1.000
    Si5790   Si       0.94932    0.70467    0.94755    1.000
    Si5791   Si       0.92803    0.65576    0.89658    1.000
    Si5792   Si       0.96005    0.85991    0.06874    1.000
    N5793    N        0.97625    0.85395    0.02919    1.000
    Si5794   Si       0.95516    0.82599    0.00324    1.000
    N5795    N        0.98426    0.83578    0.09571    1.000
    N5796    N        0.97988    0.79054    0.99645    1.000
    N5797    N        0.95223    0.90150    0.07729    1.000
    N5798    N        0.95471    0.94075    0.02062    1.000
    Si5799   Si       0.95791    0.98243    0.01168    1.000
    Si5800   Si       0.95707    0.98588    0.10231    1.000
    Si5801   Si       0.97726    0.93030    0.05686    1.000
    Si5802   Si       0.92911    0.91877    0.11114    1.000
    N5803    N        0.97551    0.77458    0.12798    1.000
    Si5804   Si       0.96805    0.81801    0.13158    1.000
    N5805    N        0.95365    0.86686    0.22442    1.000
    Si5806   Si       0.95226    0.78864    0.22098    1.000
    Si5807   Si       0.98640    0.86687    0.19616    1.000
    N5808    N        0.96131    0.92212    0.13924    1.000
    Si5809   Si       0.98497    0.93590    0.17125    1.000
    Si5810   Si       0.94446    0.96960    0.24087    1.000
    N5811    N        0.95587    0.95573    0.19797    1.000
    N5812    N        0.95257    0.99473    0.14416    1.000
    Si5813   Si       0.95019    0.83600    0.32155    1.000
    N5814    N        0.97113    0.80517    0.25848    1.000
    N5815    N        0.95880    0.86604    0.29115    1.000
    N5816    N        0.94830    0.84913    0.36441    1.000
    Si5817   Si       0.97855    0.84730    0.25657    1.000
    Si5818   Si       0.98556    0.78222    0.29140    1.000
    N5819    N        0.98741    0.81348    0.32384    1.000
    Si5820   Si       0.94002    0.90333    0.29436    1.000
    Si5821   Si       0.95183    0.95922    0.34592    1.000
    N5822    N        0.95900    0.91792    0.33145    1.000
    N5823    N        0.97729    0.98538    0.32536    1.000
    N5824    N        0.93919    0.93510    0.26551    1.000
    N5825    N        0.98229    0.98841    0.25335    1.000
    Si5826   Si       0.94679    0.89095    0.36539    1.000
    Si5827   Si       0.97156    0.84071    0.40023    1.000
    N5828    N        0.96751    0.79706    0.39766    1.000
    N5829    N        0.96285    0.83958    0.44364    1.000
    Si5830   Si       0.98606    0.99474    0.40453    1.000
    N5831    N        0.96181    0.96322    0.38840    1.000
    Si5832   Si       0.96457    0.93245    0.41949    1.000
    N5833    N        0.97640    0.89543    0.39716    1.000
    N5834    N        0.97734    0.00522    0.44730    1.000
    Si5835   Si       0.94321    0.84887    0.52533    1.000
    Si5836   Si       0.97424    0.87200    0.59223    1.000
    N5837    N        0.94148    0.84337    0.60845    1.000
    N5838    N        0.98131    0.83497    0.50741    1.000
    N5839    N        0.95185    0.88047    0.55258    1.000
    N5840    N        0.94767    0.99971    0.55135    1.000
    Si5841   Si       0.96661    0.97194    0.52649    1.000
    Si5842   Si       0.96592    0.94222    0.59654    1.000
    N5843    N        0.93952    0.94427    0.50912    1.000
    N5844    N        0.97617    0.90679    0.61725    1.000
    N5845    N        0.98225    0.98215    0.60759    1.000
    N5846    N        0.98538    0.94365    0.55770    1.000
    Si5847   Si       0.93295    0.91766    0.54427    1.000
    N5848    N        0.97448    0.77981    0.62786    1.000
    Si5849   Si       0.98173    0.80602    0.70949    1.000
    Si5850   Si       0.94342    0.86710    0.69903    1.000
    Si5851   Si       0.96983    0.82229    0.63590    1.000
    N5852    N        0.96154    0.83014    0.67936    1.000
    N5853    N        0.94840    0.79946    0.73653    1.000
    N5854    N        0.96897    0.88040    0.73237    1.000
    N5855    N        0.98239    0.95157    0.67181    1.000
    N5856    N        0.94753    0.00403    0.68420    1.000
    N5857    N        0.94773    0.95007    0.73765    1.000
    N5858    N        0.93535    0.89703    0.67068    1.000
    Si5859   Si       0.97551    0.91059    0.66007    1.000
    Si5860   Si       0.96838    0.97191    0.70811    1.000
    N5861    N        0.94728    0.79693    0.84550    1.000
    Si5862   Si       0.96228    0.86747    0.86220    1.000
    Si5863   Si       0.97099    0.76654    0.82659    1.000
    Si5864   Si       0.96247    0.76287    0.75232    1.000
    N5865    N        0.94825    0.97538    0.85214    1.000
    Si5866   Si       0.95562    0.90994    0.76085    1.000
    N5867    N        0.98540    0.91899    0.79136    1.000
    N5868    N        0.96803    0.91070    0.86263    1.000
    N5869    N        0.97915    0.77295    0.90229    1.000
    N5870    N        0.96841    0.84722    0.90034    1.000
    N5871    N        0.94126    0.84383    0.96641    1.000
    Si5872   Si       0.95257    0.86888    0.93448    1.000
    Si5873   Si       0.93969    0.77599    0.88365    1.000
    Si5874   Si       0.94169    0.93984    0.87653    1.000
    N5875    N        0.96077    0.99090    0.97119    1.000
    Si5876   Si       0.97658    0.00218    0.87368    1.000
    N5877    N        0.93658    0.95371    0.91876    1.000
    N5878    N        0.98564    0.89458    0.94889    1.000
    Si5879   Si       0.93785    0.99275    0.93655    1.000
