# CIF file generated by openbabel 3.1.1, see https://openbabel.org
data_I
_chemical_name_common '3.01-6.aims'
_cell_length_a 39.9873
_cell_length_b 39.9873
_cell_length_c 39.9873
_cell_angle_alpha 90
_cell_angle_beta 90
_cell_angle_gamma 90
loop_
    _atom_site_label
    _atom_site_type_symbol
    _atom_site_fract_x
    _atom_site_fract_y
    _atom_site_fract_z
    _atom_site_occupancy
    N0       N        0.10349    0.09191    0.01064    1.000
    Si1      Si       0.06531    0.12006    0.01045    1.000
    N2       N        0.04029    0.11995    0.04560    1.000
    Si3      Si       0.10743    0.07513    0.05122    1.000
    N4       N        0.22381    0.11027    0.02562    1.000
    N5       N        0.20375    0.04462    0.03029    1.000
    N6       N        0.13556    0.04300    0.05275    1.000
    Si7      Si       0.12015    0.00952    0.02947    1.000
    Si8      Si       0.12536    0.13111    0.02377    1.000
    Si9      Si       0.18142    0.02749    0.99735    1.000
    Si10     Si       0.23689    0.07196    0.03942    1.000
    Si11     Si       0.00084    0.13826    0.04573    1.000
    N12      N        0.00507    0.24550    0.03200    1.000
    N13      N        0.09153    0.15503    0.01014    1.000
    Si14     Si       0.02264    0.20487    0.03625    1.000
    N15      N        0.10304    0.21968    0.02814    1.000
    Si16     Si       0.08276    0.19545    0.99853    1.000
    N17      N        0.04085    0.20019    0.99717    1.000
    N18      N        0.99088    0.17863    0.04482    1.000
    Si19     Si       0.14210    0.23105    0.01497    1.000
    N20      N        0.16718    0.23726    0.05207    1.000
    N21      N        0.22136    0.17728    0.03779    1.000
    Si22     Si       0.19676    0.14157    0.04097    1.000
    N23      N        0.16441    0.14421    0.01347    1.000
    Si24     Si       0.20701    0.21710    0.05345    1.000
    N25      N        0.23474    0.24616    0.03603    1.000
    N26      N        0.10080    0.02814    0.99451    1.000
    Si27     Si       0.03756    0.08640    0.07516    1.000
    Si28     Si       0.05930    0.01874    0.06941    1.000
    N29      N        0.00095    0.06751    0.06528    1.000
    N30      N        0.06918    0.06064    0.06258    1.000
    N31      N        0.18409    0.06896    0.09415    1.000
    Si32     Si       0.15961    0.10509    0.09459    1.000
    Si33     Si       0.17591    0.03673    0.06505    1.000
    N34      N        0.12753    0.11315    0.06478    1.000
    N35      N        0.05177    0.19902    0.06937    1.000
    Si36     Si       0.08466    0.22760    0.06801    1.000
    N37      N        0.00479    0.23237    0.09688    1.000
    Si38     Si       0.03299    0.20192    0.10753    1.000
    N39      N        0.18882    0.13550    0.08464    1.000
    N40      N        0.11644    0.22761    0.09618    1.000
    N41      N        0.20797    0.20565    0.09502    1.000
    N42      N        0.06205    0.01715    0.11378    1.000
    Si43     Si       0.05902    0.07813    0.15154    1.000
    N44      N        0.09604    0.05676    0.14691    1.000
    Si45     Si       0.00830    0.12615    0.12492    1.000
    Si46     Si       0.09815    0.01224    0.14382    1.000
    N47      N        0.03762    0.09244    0.11673    1.000
    Si48     Si       0.03221    0.01056    0.14689    1.000
    N49      N        0.07122    0.11332    0.16942    1.000
    Si50     Si       0.04984    0.25774    0.15944    1.000
    N51      N        0.13410    0.23313    0.16317    1.000
    Si52     Si       0.12342    0.08694    0.16571    1.000
    N53      N        0.13751    0.10714    0.13123    1.000
    N54      N        0.21797    0.07962    0.15343    1.000
    Si55     Si       0.22246    0.06058    0.11433    1.000
    Si56     Si       0.22341    0.12124    0.16865    1.000
    Si57     Si       0.20010    0.16634    0.11261    1.000
    Si58     Si       0.13265    0.14617    0.14840    1.000
    N59      N        0.09881    0.17200    0.14492    1.000
    Si60     Si       0.06096    0.15536    0.15942    1.000
    N61      N        0.03151    0.16252    0.12904    1.000
    N62      N        0.06326    0.22513    0.13343    1.000
    Si63     Si       0.10547    0.21399    0.13534    1.000
    Si64     Si       0.21531    0.23704    0.12260    1.000
    N65      N        0.23233    0.15207    0.13939    1.000
    Si66     Si       0.16555    0.20487    0.16803    1.000
    N67      N        0.20661    0.22137    0.16048    1.000
    N68      N        0.16555    0.17281    0.13844    1.000
    Si69     Si       0.03535    0.03659    0.21149    1.000
    N70      N        0.07028    0.01962    0.22704    1.000
    N71      N        0.00089    0.00973    0.21430    1.000
    Si72     Si       0.08719    0.13091    0.20902    1.000
    Si73     Si       0.15797    0.02623    0.18845    1.000
    N74      N        0.14321    0.06479    0.19749    1.000
    N75      N        0.17809    0.01328    0.22365    1.000
    N76      N        0.12881    0.12688    0.18852    1.000
    Si77     Si       0.22022    0.02140    0.22967    1.000
    Si78     Si       0.15778    0.14255    0.21811    1.000
    Si79     Si       0.04728    0.20552    0.21692    1.000
    N80      N        0.05575    0.16772    0.20004    1.000
    N81      N        0.03004    0.23877    0.19163    1.000
    Si82     Si       0.99239    0.24105    0.21237    1.000
    N83      N        0.19643    0.24546    0.22639    1.000
    N84      N        0.19857    0.13530    0.20144    1.000
    N85      N        0.15501    0.18597    0.20819    1.000
    Si86     Si       0.22104    0.24997    0.19186    1.000
    Si87     Si       0.23051    0.15292    0.22514    1.000
    N88      N        0.22445    0.06573    0.22886    1.000
    N89      N        0.03498    0.04749    0.16937    1.000
    Si90     Si       0.05670    0.08490    0.26308    1.000
    N91      N        0.02390    0.06784    0.23732    1.000
    Si92     Si       0.09089    0.01972    0.26562    1.000
    N93      N        0.05849    0.12081    0.28790    1.000
    N94      N        0.08961    0.09395    0.23387    1.000
    Si95     Si       0.18118    0.20727    0.23640    1.000
    N96      N        0.12944    0.04505    0.26632    1.000
    N97      N        0.15620    0.11214    0.25098    1.000
    Si98     Si       0.13011    0.07848    0.23707    1.000
    N99      N        0.00973    0.21261    0.24239    1.000
    Si100    Si       0.09088    0.14984    0.28065    1.000
    N101     N        0.10507    0.15820    0.24125    1.000
    Si102    Si       0.98929    0.21061    0.28016    1.000
    N103     N        0.21050    0.18116    0.25142    1.000
    Si104    Si       0.12065    0.19756    0.23493    1.000
    N105     N        0.14914    0.21160    0.26527    1.000
    N106     N        0.08585    0.22329    0.22990    1.000
    Si107    Si       0.09162    0.05374    0.32799    1.000
    Si108    Si       0.02892    0.12186    0.31975    1.000
    N109     N        0.02027    0.08369    0.33575    1.000
    N110     N        0.99118    0.02608    0.33846    1.000
    N111     N        0.06333    0.02575    0.34556    1.000
    Si112    Si       0.09589    0.13253    0.34067    1.000
    Si113    Si       0.22421    0.11008    0.32112    1.000
    N114     N        0.16767    0.08210    0.32020    1.000
    Si115    Si       0.15505    0.04483    0.30306    1.000
    N116     N        0.12798    0.03099    0.33602    1.000
    Si117    Si       0.16158    0.11793    0.29453    1.000
    N118     N        0.23549    0.07021    0.30078    1.000
    Si119    Si       0.09188    0.22929    0.30717    1.000
    N120     N        0.00832    0.19581    0.31858    1.000
    Si121    Si       0.04946    0.18997    0.32910    1.000
    N122     N        0.07899    0.18970    0.29711    1.000
    N123     N        0.06088    0.23063    0.34008    1.000
    N124     N        0.05186    0.14912    0.34741    1.000
    Si125    Si       0.23043    0.24033    0.33656    1.000
    Si126    Si       0.21746    0.18039    0.29279    1.000
    N127     N        0.13044    0.22920    0.32619    1.000
    N128     N        0.19938    0.13916    0.30191    1.000
    N129     N        0.20309    0.21568    0.31233    1.000
    N130     N        0.12406    0.13629    0.30574    1.000
    Si131    Si       0.16369    0.23340    0.29923    1.000
    N132     N        0.98773    0.12392    0.30520    1.000
    N133     N        0.07247    0.05443    0.28904    1.000
    N134     N        0.17495    0.00723    0.29445    1.000
    N135     N        0.02747    0.05324    0.39720    1.000
    Si136    Si       0.02580    0.04580    0.35420    1.000
    N137     N        0.09207    0.08910    0.35048    1.000
    Si138    Si       0.11370    0.09748    0.38712    1.000
    Si139    Si       0.18191    0.07737    0.36359    1.000
    N140     N        0.20959    0.11024    0.36218    1.000
    N141     N        0.20717    0.04162    0.36233    1.000
    N142     N        0.15314    0.07912    0.39694    1.000
    N143     N        0.12268    0.13927    0.37401    1.000
    Si144    Si       0.03076    0.15084    0.38622    1.000
    N145     N        0.00020    0.23345    0.37573    1.000
    N146     N        0.98952    0.16399    0.38234    1.000
    N147     N        0.04500    0.18727    0.40340    1.000
    Si148    Si       0.20115    0.21295    0.39224    1.000
    N149     N        0.17176    0.24121    0.38102    1.000
    Si150    Si       0.14471    0.16901    0.39760    1.000
    N151     N        0.11711    0.20326    0.39288    1.000
    Si152    Si       0.12971    0.23602    0.36867    1.000
    Si153    Si       0.21969    0.14053    0.39195    1.000
    N154     N        0.18715    0.17289    0.38616    1.000
    N155     N        0.23750    0.21986    0.37332    1.000
    Si156    Si       0.06620    0.10899    0.44959    1.000
    N157     N        0.10099    0.09542    0.42671    1.000
    Si158    Si       0.03759    0.02240    0.42267    1.000
    N159     N        0.07509    0.01973    0.44406    1.000
    N160     N        0.03970    0.11890    0.41433    1.000
    N161     N        0.01023    0.02017    0.45498    1.000
    Si162    Si       0.00934    0.08874    0.41525    1.000
    N163     N        0.00035    0.08912    0.45682    1.000
    Si164    Si       0.14015    0.08034    0.44015    1.000
    N165     N        0.13502    0.04076    0.45595    1.000
    Si166    Si       0.22470    0.01964    0.46006    1.000
    N167     N        0.21269    0.12599    0.43292    1.000
    N168     N        0.23399    0.05300    0.43287    1.000
    N169     N        0.99276    0.22452    0.44433    1.000
    Si170    Si       0.08010    0.20552    0.41909    1.000
    N171     N        0.05888    0.24610    0.41895    1.000
    N172     N        0.07959    0.19936    0.46103    1.000
    Si173    Si       0.02138    0.22086    0.41404    1.000
    N174     N        0.14675    0.16548    0.44003    1.000
    N175     N        0.19586    0.22266    0.43667    1.000
    Si176    Si       0.22561    0.24119    0.46232    1.000
    N177     N        0.13616    0.23724    0.44912    1.000
    Si178    Si       0.17995    0.14226    0.45662    1.000
    Si179    Si       0.16317    0.20217    0.46236    1.000
    Si180    Si       0.16581    0.25486    0.42407    1.000
    Si181    Si       0.06061    0.10015    0.51206    1.000
    N182     N        0.05951    0.07280    0.47759    1.000
    Si183    Si       0.02015    0.05639    0.47850    1.000
    Si184    Si       0.09522    0.04188    0.47412    1.000
    N185     N        0.09910    0.02503    0.51431    1.000
    N186     N        0.00746    0.04635    0.51814    1.000
    N187     N        0.21246    0.03068    0.50082    1.000
    Si188    Si       0.16429    0.10939    0.51527    1.000
    N189     N        0.15874    0.10537    0.47064    1.000
    N190     N        0.20552    0.12257    0.51507    1.000
    N191     N        0.06899    0.13255    0.48562    1.000
    N192     N        0.01681    0.17304    0.49147    1.000
    Si193    Si       0.05941    0.17608    0.49087    1.000
    N194     N        0.01009    0.24356    0.50675    1.000
    Si195    Si       0.99468    0.20938    0.48449    1.000
    Si196    Si       0.10729    0.22827    0.47938    1.000
    Si197    Si       0.05151    0.24713    0.52104    1.000
    Si198    Si       0.21234    0.16707    0.51924    1.000
    N199     N        0.19241    0.17475    0.48165    1.000
    N200     N        0.23616    0.23488    0.50406    1.000
    N201     N        0.13740    0.20313    0.49846    1.000
    N202     N        0.09275    0.09016    0.53854    1.000
    N203     N        0.02235    0.11146    0.53209    1.000
    Si204    Si       0.03969    0.12804    0.56847    1.000
    Si205    Si       0.11259    0.12116    0.56008    1.000
    Si206    Si       0.98995    0.08036    0.53522    1.000
    N207     N        0.11663    0.04362    0.58321    1.000
    Si208    Si       0.11702    0.05520    0.54152    1.000
    N209     N        0.22272    0.07466    0.55367    1.000
    Si210    Si       0.19455    0.05049    0.53580    1.000
    N211     N        0.15626    0.06934    0.52986    1.000
    N212     N        0.18975    0.01389    0.55724    1.000
    Si213    Si       0.07939    0.19279    0.56268    1.000
    N214     N        0.01441    0.16281    0.56479    1.000
    N215     N        0.07869    0.14881    0.56265    1.000
    Si216    Si       0.00139    0.15189    0.52461    1.000
    N217     N        0.06406    0.20547    0.52506    1.000
    Si218    Si       0.14801    0.18268    0.53674    1.000
    N219     N        0.12216    0.20176    0.56671    1.000
    N220     N        0.18826    0.18806    0.54991    1.000
    N221     N        0.14264    0.13944    0.53674    1.000
    N222     N        0.04179    0.10917    0.60431    1.000
    N223     N        0.03813    0.03093    0.63110    1.000
    Si224    Si       0.11232    0.13196    0.63457    1.000
    N225     N        0.11572    0.23930    0.62335    1.000
    N226     N        0.09601    0.00801    0.64035    1.000
    N227     N        0.22832    0.17842    0.61307    1.000
    N228     N        0.12591    0.11037    0.59935    1.000
    Si229    Si       0.13487    0.07094    0.61530    1.000
    N230     N        0.16940    0.04836    0.62096    1.000
    Si231    Si       0.17164    0.01127    0.59509    1.000
    Si232    Si       0.13755    0.20756    0.60655    1.000
    N233     N        0.06140    0.20016    0.60173    1.000
    Si234    Si       0.07417    0.22832    0.63409    1.000
    N235     N        0.99595    0.22536    0.59707    1.000
    Si236    Si       0.01744    0.18600    0.60108    1.000
    N237     N        0.01210    0.15899    0.63555    1.000
    N238     N        0.13062    0.17351    0.63190    1.000
    N239     N        0.17861    0.21605    0.61478    1.000
    Si240    Si       0.20921    0.20570    0.58396    1.000
    N241     N        0.23019    0.24180    0.58528    1.000
    N242     N        0.01532    0.09178    0.66743    1.000
    Si243    Si       0.00858    0.04782    0.65849    1.000
    Si244    Si       0.07410    0.04316    0.65162    1.000
    N245     N        0.07569    0.03664    0.69604    1.000
    N246     N        0.00791    0.02049    0.69321    1.000
    N247     N        0.10167    0.07537    0.64808    1.000
    Si248    Si       0.11081    0.09581    0.68811    1.000
    N249     N        0.21307    0.09791    0.67731    1.000
    N250     N        0.18871    0.02906    0.68459    1.000
    N251     N        0.13799    0.12352    0.67083    1.000
    Si252    Si       0.18263    0.07027    0.69895    1.000
    N253     N        0.06725    0.21659    0.67373    1.000
    N254     N        0.07552    0.14053    0.65720    1.000
    Si255    Si       0.07543    0.17350    0.68797    1.000
    N256     N        0.99243    0.20085    0.69160    1.000
    Si257    Si       0.20614    0.20028    0.64568    1.000
    N258     N        0.18447    0.18634    0.67877    1.000
    N259     N        0.23760    0.23119    0.65407    1.000
    Si260    Si       0.14590    0.16639    0.67270    1.000
    Si261    Si       0.03760    0.12499    0.64357    1.000
    Si262    Si       0.20305    0.03239    0.64462    1.000
    N263     N        0.00782    0.11385    0.73193    1.000
    N264     N        0.08364    0.10850    0.72034    1.000
    N265     N        0.04153    0.01577    0.75367    1.000
    N266     N        0.11230    0.02157    0.75496    1.000
    Si267    Si       0.19426    0.18747    0.72286    1.000
    Si268    Si       0.05036    0.12945    0.73808    1.000
    Si269    Si       0.11640    0.03222    0.71374    1.000
    Si270    Si       0.22417    0.11331    0.71822    1.000
    N271     N        0.20386    0.07709    0.73422    1.000
    N272     N        0.17814    0.01448    0.75425    1.000
    N273     N        0.13805    0.06755    0.70510    1.000
    Si274    Si       0.01903    0.20162    0.72611    1.000
    N275     N        0.04740    0.16928    0.71891    1.000
    N276     N        0.03467    0.24544    0.73248    1.000
    N277     N        0.10286    0.23992    0.73274    1.000
    Si278    Si       0.07018    0.24898    0.70609    1.000
    N279     N        0.11597    0.17884    0.70089    1.000
    N280     N        0.16040    0.19411    0.74907    1.000
    N281     N        0.22993    0.21370    0.72409    1.000
    N282     N        0.20820    0.14867    0.73613    1.000
    Si283    Si       0.11865    0.20015    0.73877    1.000
    N284     N        0.01708    0.07720    0.78516    1.000
    N285     N        0.08051    0.06099    0.79408    1.000
    Si286    Si       0.07617    0.02105    0.77806    1.000
    Si287    Si       0.01009    0.03551    0.77670    1.000
    Si288    Si       0.05408    0.09389    0.79992    1.000
    N289     N        0.01047    0.01818    0.81913    1.000
    N290     N        0.05651    0.13131    0.78063    1.000
    Si291    Si       0.14403    0.01169    0.78023    1.000
    N292     N        0.19966    0.07732    0.80038    1.000
    Si293    Si       0.20530    0.04887    0.76672    1.000
    N294     N        0.23063    0.01817    0.78114    1.000
    N295     N        0.14156    0.03576    0.81482    1.000
    Si296    Si       0.17078    0.10545    0.81816    1.000
    Si297    Si       0.99646    0.17516    0.80165    1.000
    Si298    Si       0.07396    0.16810    0.79919    1.000
    N299     N        0.03833    0.19216    0.80992    1.000
    N300     N        0.10644    0.18186    0.77566    1.000
    N301     N        0.20978    0.20153    0.79159    1.000
    Si302    Si       0.14974    0.17965    0.79023    1.000
    N303     N        0.17626    0.14432    0.79940    1.000
    Si304    Si       0.21218    0.15935    0.77874    1.000
    Si305    Si       0.99011    0.10597    0.76983    1.000
    N306     N        0.98862    0.13195    0.80508    1.000
    N307     N        0.99286    0.19444    0.76070    1.000
    N308     N        0.06564    0.09874    0.84289    1.000
    N309     N        0.99992    0.07841    0.85453    1.000
    Si310    Si       0.10427    0.12167    0.85066    1.000
    Si311    Si       0.03897    0.08312    0.87257    1.000
    Si312    Si       0.10833    0.06384    0.82631    1.000
    N313     N        0.14810    0.20883    0.82635    1.000
    N314     N        0.11529    0.05258    0.86961    1.000
    N315     N        0.18503    0.09182    0.86029    1.000
    Si316    Si       0.14576    0.02510    0.85675    1.000
    Si317    Si       0.20778    0.05759    0.87070    1.000
    N318     N        0.12756    0.10214    0.82187    1.000
    Si319    Si       0.12445    0.22755    0.85933    1.000
    N320     N        0.08856    0.15947    0.84032    1.000
    Si321    Si       0.07792    0.18960    0.86989    1.000
    N322     N        0.01337    0.24167    0.85541    1.000
    Si323    Si       0.04642    0.23141    0.82713    1.000
    N324     N        0.08261    0.22732    0.84763    1.000
    N325     N        0.20262    0.21847    0.86462    1.000
    Si326    Si       0.18972    0.22260    0.82415    1.000
    N327     N        0.18414    0.02085    0.87376    1.000
    N328     N        0.03694    0.11373    0.90360    1.000
    Si329    Si       0.09545    0.05236    0.90804    1.000
    N330     N        0.05380    0.04881    0.89298    1.000
    N331     N        0.10444    0.01669    0.92857    1.000
    Si332    Si       0.03383    0.01126    0.89978    1.000
    N333     N        0.99175    0.02378    0.89072    1.000
    Si334    Si       0.17311    0.11919    0.88901    1.000
    N335     N        0.21261    0.05326    0.91478    1.000
    N336     N        0.16748    0.10314    0.92841    1.000
    Si337    Si       0.12730    0.12295    0.92866    1.000
    N338     N        0.13078    0.12777    0.88596    1.000
    Si339    Si       0.19505    0.00864    0.91615    1.000
    Si340    Si       0.01170    0.21822    0.88949    1.000
    Si341    Si       0.01673    0.15245    0.90276    1.000
    N342     N        0.02986    0.22846    0.92915    1.000
    N343     N        0.03904    0.18350    0.88420    1.000
    N344     N        0.08732    0.14774    0.93505    1.000
    Si345    Si       0.11376    0.18454    0.93119    1.000
    N346     N        0.11469    0.20018    0.89247    1.000
    N347     N        0.20154    0.15143    0.89026    1.000
    Si348    Si       0.22014    0.17239    0.92624    1.000
    N349     N        0.21245    0.21389    0.93245    1.000
    Si350    Si       0.22255    0.23723    0.89667    1.000
    N351     N        0.04375    0.10938    0.97342    1.000
    Si352    Si       0.00188    0.12187    0.96687    1.000
    Si353    Si       0.18485    0.23790    0.95657    1.000
    Si354    Si       0.06441    0.11239    0.93654    1.000
    N355     N        0.10145    0.08528    0.93848    1.000
    Si356    Si       0.11776    0.06470    0.97716    1.000
    N357     N        0.23091    0.08904    0.95965    1.000
    N358     N        0.16057    0.05887    0.97794    1.000
    Si359    Si       0.19043    0.07464    0.94857    1.000
    N360     N        0.20586    0.01303    0.96331    1.000
    Si361    Si       0.23725    0.12389    0.98575    1.000
    Si362    Si       0.01555    0.19945    0.96052    1.000
    N363     N        0.10285    0.21317    0.96183    1.000
    N364     N        0.00786    0.15979    0.94433    1.000
    N365     N        0.17007    0.21091    0.98919    1.000
    N366     N        0.14591    0.16102    0.94642    1.000
    Si367    Si       0.17391    0.16759    0.97858    1.000
    N368     N        0.21307    0.15391    0.96578    1.000
    N369     N        0.00701    0.33181    0.00765    1.000
    Si370    Si       0.09321    0.36138    0.03576    1.000
    N371     N        0.06476    0.32700    0.03545    1.000
    Si372    Si       0.02274    0.33358    0.04838    1.000
    N373     N        0.18373    0.31039    0.01975    1.000
    N374     N        0.13210    0.34468    0.02896    1.000
    Si375    Si       0.14150    0.30198    0.02644    1.000
    Si376    Si       0.22054    0.28383    0.01547    1.000
    Si377    Si       0.17797    0.35483    0.02345    1.000
    N378     N        0.12803    0.27301    0.99622    1.000
    N379     N        0.10107    0.44918    0.04177    1.000
    N380     N        0.08423    0.39115    0.00464    1.000
    Si381    Si       0.08894    0.49239    0.04383    1.000
    N382     N        0.02053    0.43066    0.04494    1.000
    Si383    Si       0.10735    0.42779    0.00387    1.000
    N384     N        0.99668    0.50610    0.00661    1.000
    N385     N        0.23826    0.49761    0.00150    1.000
    Si386    Si       0.16035    0.49892    0.05274    1.000
    N387     N        0.20379    0.38107    0.99962    1.000
    Si388    Si       0.17911    0.44516    0.00811    1.000
    N389     N        0.20422    0.43561    0.04147    1.000
    Si390    Si       0.23286    0.40284    0.02275    1.000
    N391     N        0.15482    0.48260    0.01188    1.000
    Si392    Si       0.04530    0.31563    0.99434    1.000
    N393     N        0.01308    0.30268    0.07578    1.000
    N394     N        0.02116    0.36875    0.06959    1.000
    Si395    Si       0.08170    0.30137    0.06848    1.000
    N396     N        0.07119    0.32570    0.10349    1.000
    N397     N        0.06195    0.26248    0.06387    1.000
    Si398    Si       0.01907    0.26105    0.06898    1.000
    Si399    Si       0.98657    0.36875    0.09663    1.000
    N400     N        0.12399    0.29016    0.06555    1.000
    N401     N        0.19251    0.36078    0.06449    1.000
    Si402    Si       0.16850    0.37329    0.10001    1.000
    Si403    Si       0.23430    0.34771    0.06994    1.000
    N404     N        0.99347    0.47403    0.09474    1.000
    N405     N        0.08693    0.38610    0.07290    1.000
    Si406    Si       0.02779    0.46238    0.07478    1.000
    N407     N        0.04798    0.43455    0.09982    1.000
    Si408    Si       0.04496    0.40401    0.06950    1.000
    N409     N        0.04679    0.49669    0.05811    1.000
    Si410    Si       0.11320    0.42381    0.07531    1.000
    Si411    Si       0.18981    0.43828    0.08149    1.000
    N412     N        0.15300    0.40956    0.07968    1.000
    N413     N        0.16598    0.47283    0.08739    1.000
    N414     N        0.22357    0.44986    0.11037    1.000
    N415     N        0.23463    0.30527    0.06454    1.000
    Si416    Si       0.14703    0.25794    0.08418    1.000
    N417     N        0.01971    0.28538    0.14157    1.000
    N418     N        0.00622    0.34981    0.13080    1.000
    Si419    Si       0.02935    0.31694    0.11414    1.000
    Si420    Si       0.09174    0.36517    0.11319    1.000
    N421     N        0.19771    0.33194    0.11893    1.000
    Si422    Si       0.22271    0.36448    0.13346    1.000
    Si423    Si       0.18388    0.29762    0.14119    1.000
    N424     N        0.13319    0.36027    0.12413    1.000
    N425     N        0.14863    0.30640    0.16406    1.000
    Si426    Si       0.99442    0.34156    0.17089    1.000
    N427     N        0.19212    0.39692    0.12741    1.000
    Si428    Si       0.07423    0.43446    0.13551    1.000
    N429     N        0.07819    0.39215    0.14583    1.000
    N430     N        0.11132    0.44236    0.11536    1.000
    N431     N        0.06928    0.45948    0.17053    1.000
    N432     N        0.17121    0.46232    0.15620    1.000
    Si433    Si       0.14217    0.47052    0.12348    1.000
    Si434    Si       0.20482    0.43521    0.14628    1.000
    Si435    Si       0.13638    0.34838    0.16826    1.000
    N436     N        0.17887    0.26543    0.11408    1.000
    N437     N        0.02806    0.32664    0.19521    1.000
    Si438    Si       0.06970    0.31506    0.19572    1.000
    N439     N        0.09752    0.34606    0.18809    1.000
    Si440    Si       0.20449    0.38721    0.19658    1.000
    Si441    Si       0.14336    0.39819    0.22863    1.000
    N442     N        0.13340    0.27087    0.22388    1.000
    Si443    Si       0.22119    0.32101    0.20124    1.000
    Si444    Si       0.12649    0.27212    0.17975    1.000
    N445     N        0.22399    0.35605    0.17568    1.000
    N446     N        0.16014    0.37868    0.19186    1.000
    N447     N        0.21362    0.28704    0.17243    1.000
    N448     N        0.22460    0.42195    0.18243    1.000
    Si449    Si       0.01092    0.38206    0.22517    1.000
    Si450    Si       0.09309    0.45778    0.20492    1.000
    N451     N        0.05127    0.39361    0.22277    1.000
    N452     N        0.00924    0.48420    0.20756    1.000
    N453     N        0.10767    0.41619    0.20655    1.000
    Si454    Si       0.07992    0.38699    0.19097    1.000
    Si455    Si       0.15142    0.49776    0.17450    1.000
    N456     N        0.12717    0.48484    0.20814    1.000
    N457     N        0.98825    0.27943    0.23213    1.000
    N458     N        0.08442    0.28021    0.17382    1.000
    N459     N        0.00770    0.34843    0.25281    1.000
    Si460    Si       0.07118    0.30376    0.28003    1.000
    Si461    Si       0.09361    0.26294    0.24007    1.000
    N462     N        0.03029    0.29168    0.28320    1.000
    Si463    Si       0.02166    0.30865    0.23839    1.000
    N464     N        0.06820    0.29938    0.23673    1.000
    N465     N        0.09223    0.26534    0.28379    1.000
    N466     N        0.12784    0.48605    0.27863    1.000
    Si467    Si       0.17383    0.27728    0.24431    1.000
    Si468    Si       0.18654    0.34889    0.25755    1.000
    N469     N        0.14563    0.36505    0.25939    1.000
    N470     N        0.20866    0.38063    0.23843    1.000
    N471     N        0.17213    0.27454    0.28794    1.000
    N472     N        0.99603    0.46779    0.26740    1.000
    Si473    Si       0.03180    0.48497    0.24553    1.000
    N474     N        0.06643    0.45924    0.24039    1.000
    Si475    Si       0.06489    0.41992    0.25607    1.000
    Si476    Si       0.99375    0.42314    0.28655    1.000
    N477     N        0.10072    0.40944    0.28290    1.000
    N478     N        0.18845    0.49723    0.24266    1.000
    Si479    Si       0.15124    0.47808    0.24308    1.000
    N480     N        0.15425    0.43383    0.25063    1.000
    N481     N        0.19044    0.31488    0.23058    1.000
    N482     N        0.08914    0.33940    0.29509    1.000
    N483     N        0.03780    0.42155    0.29075    1.000
    Si484    Si       0.12969    0.44468    0.29097    1.000
    N485     N        0.00001    0.28608    0.34426    1.000
    Si486    Si       0.99235    0.28373    0.30239    1.000
    Si487    Si       0.23832    0.35718    0.31692    1.000
    Si488    Si       0.19080    0.30172    0.31740    1.000
    N489     N        0.22062    0.28275    0.34051    1.000
    N490     N        0.14066    0.37615    0.33060    1.000
    N491     N        0.20756    0.33371    0.29314    1.000
    N492     N        0.21391    0.37272    0.34746    1.000
    Si493    Si       0.11830    0.37116    0.29272    1.000
    Si494    Si       0.05985    0.42555    0.32746    1.000
    N495     N        0.07594    0.38914    0.34702    1.000
    N496     N        0.08404    0.45924    0.33532    1.000
    Si497    Si       0.19306    0.46606    0.34052    1.000
    N498     N        0.22627    0.46307    0.31303    1.000
    N499     N        0.15272    0.44937    0.32814    1.000
    Si500    Si       0.01439    0.31695    0.37196    1.000
    N501     N        0.05016    0.29523    0.37907    1.000
    N502     N        0.01004    0.35887    0.36111    1.000
    N503     N        0.11100    0.33957    0.38367    1.000
    Si504    Si       0.03198    0.25792    0.35858    1.000
    N505     N        0.11342    0.27288    0.38424    1.000
    Si506    Si       0.11289    0.37844    0.36360    1.000
    Si507    Si       0.13905    0.30843    0.38457    1.000
    N508     N        0.16989    0.36996    0.39504    1.000
    Si509    Si       0.17374    0.35850    0.35286    1.000
    N510     N        0.16484    0.31667    0.34810    1.000
    N511     N        0.20392    0.43893    0.37404    1.000
    Si512    Si       0.04307    0.38485    0.37407    1.000
    N513     N        0.03084    0.42436    0.36347    1.000
    Si514    Si       0.08576    0.50064    0.35617    1.000
    Si515    Si       0.23116    0.40337    0.37398    1.000
    N516     N        0.11981    0.48635    0.37855    1.000
    Si517    Si       0.12067    0.44881    0.35712    1.000
    N518     N        0.12349    0.41643    0.38245    1.000
    N519     N        0.99435    0.48119    0.38208    1.000
    Si520    Si       0.99222    0.44208    0.36385    1.000
    N521     N        0.23024    0.32010    0.41199    1.000
    N522     N        0.09073    0.31071    0.44156    1.000
    Si523    Si       0.09182    0.34892    0.42034    1.000
    N524     N        0.05593    0.37290    0.41355    1.000
    N525     N        0.00702    0.34797    0.46131    1.000
    Si526    Si       0.08002    0.28218    0.40823    1.000
    Si527    Si       0.03535    0.38001    0.45115    1.000
    N528     N        0.15935    0.29880    0.42327    1.000
    Si529    Si       0.20470    0.35434    0.41894    1.000
    N530     N        0.18437    0.35042    0.45917    1.000
    Si531    Si       0.17129    0.30941    0.46382    1.000
    N532     N        0.18234    0.49401    0.41854    1.000
    N533     N        0.23347    0.38860    0.41488    1.000
    N534     N        0.07200    0.48857    0.45072    1.000
    N535     N        0.00368    0.40958    0.45112    1.000
    N536     N        0.11483    0.38158    0.44009    1.000
    Si537    Si       0.14541    0.40059    0.41663    1.000
    Si538    Si       0.20005    0.45407    0.41311    1.000
    N539     N        0.17098    0.42885    0.43528    1.000
    Si540    Si       0.17479    0.50441    0.45949    1.000
    Si541    Si       0.09613    0.30427    0.48316    1.000
    N542     N        0.07548    0.32685    0.51420    1.000
    Si543    Si       0.99412    0.35183    0.50510    1.000
    N544     N        0.08479    0.26222    0.49638    1.000
    N545     N        0.19175    0.40683    0.49714    1.000
    N546     N        0.13927    0.30648    0.49460    1.000
    Si547    Si       0.17329    0.36788    0.49862    1.000
    Si548    Si       0.21824    0.27333    0.51101    1.000
    N549     N        0.13152    0.37501    0.50523    1.000
    N550     N        0.20042    0.27792    0.47128    1.000
    Si551    Si       0.23236    0.40806    0.51320    1.000
    N552     N        0.02146    0.50837    0.51030    1.000
    N553     N        0.06306    0.39478    0.48133    1.000
    Si554    Si       0.10557    0.39934    0.47729    1.000
    Si555    Si       0.10621    0.48209    0.47784    1.000
    Si556    Si       0.04814    0.40449    0.52103    1.000
    N557     N        0.10147    0.49069    0.52315    1.000
    N558     N        0.18751    0.47274    0.48781    1.000
    N559     N        0.12360    0.44209    0.48067    1.000
    Si560    Si       0.16646    0.43636    0.47774    1.000
    N561     N        0.18726    0.34080    0.52738    1.000
    Si562    Si       0.04343    0.31377    0.54158    1.000
    N563     N        0.04543    0.27152    0.55768    1.000
    N564     N        0.04419    0.34009    0.57564    1.000
    Si565    Si       0.10423    0.35606    0.53129    1.000
    Si566    Si       0.23278    0.43504    0.58690    1.000
    Si567    Si       0.15669    0.31100    0.53430    1.000
    N568     N        0.12820    0.33316    0.56065    1.000
    N569     N        0.18652    0.27770    0.53988    1.000
    Si570    Si       0.22728    0.33220    0.54102    1.000
    Si571    Si       0.20346    0.27558    0.58059    1.000
    N572     N        0.22490    0.31516    0.58225    1.000
    N573     N        0.01131    0.38450    0.53147    1.000
    N574     N        0.07944    0.38601    0.54547    1.000
    N575     N        0.00372    0.48568    0.57060    1.000
    Si576    Si       0.99889    0.39156    0.57300    1.000
    N577     N        0.05262    0.44518    0.53111    1.000
    Si578    Si       0.08879    0.46082    0.55084    1.000
    Si579    Si       0.01920    0.47193    0.53124    1.000
    N580     N        0.06618    0.48575    0.57839    1.000
    Si581    Si       0.21153    0.47398    0.52405    1.000
    N582     N        0.12147    0.44526    0.57908    1.000
    N583     N        0.23133    0.43975    0.54287    1.000
    N584     N        0.18689    0.48641    0.55925    1.000
    N585     N        0.00592    0.31493    0.52132    1.000
    Si586    Si       0.01453    0.33223    0.60516    1.000
    N587     N        0.05117    0.26503    0.62796    1.000
    N588     N        0.99791    0.29261    0.60499    1.000
    N589     N        0.10693    0.30891    0.62554    1.000
    Si590    Si       0.02474    0.25937    0.59356    1.000
    N591     N        0.10035    0.37726    0.60780    1.000
    Si592    Si       0.16216    0.46150    0.58731    1.000
    Si593    Si       0.12578    0.34167    0.60323    1.000
    N594     N        0.16434    0.35305    0.61946    1.000
    N595     N        0.17303    0.28567    0.60923    1.000
    Si596    Si       0.19649    0.32284    0.61655    1.000
    Si597    Si       0.13535    0.27650    0.63050    1.000
    N598     N        0.03340    0.40408    0.59482    1.000
    Si599    Si       0.07396    0.48512    0.62208    1.000
    N600     N        0.07588    0.44193    0.63158    1.000
    Si601    Si       0.03561    0.42559    0.63535    1.000
    N602     N        0.00583    0.45675    0.63447    1.000
    Si603    Si       0.11156    0.41959    0.61477    1.000
    Si604    Si       0.21815    0.48805    0.63450    1.000
    N605     N        0.19102    0.42894    0.59489    1.000
    N606     N        0.17508    0.48974    0.62089    1.000
    Si607    Si       0.06452    0.37629    0.58421    1.000
    Si608    Si       0.01750    0.34974    0.67309    1.000
    N609     N        0.07442    0.28841    0.68790    1.000
    Si610    Si       0.06870    0.30060    0.64575    1.000
    N611     N        0.14767    0.27773    0.67206    1.000
    N612     N        0.14892    0.35453    0.68518    1.000
    Si613    Si       0.23125    0.30943    0.68576    1.000
    Si614    Si       0.15493    0.31154    0.69693    1.000
    N615     N        0.22696    0.32551    0.64504    1.000
    Si616    Si       0.16588    0.37799    0.65298    1.000
    N617     N        0.02785    0.49674    0.69175    1.000
    N618     N        0.02019    0.39331    0.66251    1.000
    Si619    Si       0.99378    0.48041    0.66887    1.000
    Si620    Si       0.21641    0.42279    0.68990    1.000
    N621     N        0.14184    0.41542    0.64591    1.000
    Si622    Si       0.14563    0.50365    0.64949    1.000
    N623     N        0.20668    0.38923    0.65986    1.000
    N624     N        0.22718    0.45906    0.66728    1.000
    N625     N        0.14168    0.47746    0.68214    1.000
    Si626    Si       0.14017    0.43468    0.68445    1.000
    N627     N        0.04003    0.33227    0.64083    1.000
    Si628    Si       0.07465    0.32320    0.71796    1.000
    N629     N        0.08298    0.36441    0.72743    1.000
    N630     N        0.03201    0.33283    0.70900    1.000
    Si631    Si       0.02356    0.35220    0.74671    1.000
    N632     N        0.07238    0.29758    0.75442    1.000
    Si633    Si       0.11789    0.27986    0.75093    1.000
    N634     N        0.12473    0.31664    0.72759    1.000
    Si635    Si       0.12731    0.36513    0.72176    1.000
    N636     N        0.19650    0.30778    0.70994    1.000
    Si637    Si       0.20055    0.28834    0.74922    1.000
    N638     N        0.15377    0.37947    0.75479    1.000
    N639     N        0.16300    0.27134    0.75727    1.000
    N640     N        0.22215    0.37975    0.75710    1.000
    N641     N        0.99839    0.38547    0.72857    1.000
    Si642    Si       0.03938    0.47304    0.72884    1.000
    N643     N        0.07572    0.49285    0.74473    1.000
    Si644    Si       0.07921    0.40760    0.73369    1.000
    N645     N        0.04711    0.43084    0.71617    1.000
    Si646    Si       0.15864    0.42240    0.74748    1.000
    Si647    Si       0.23248    0.48146    0.70635    1.000
    N648     N        0.19802    0.50123    0.72003    1.000
    N649     N        0.11751    0.41324    0.71235    1.000
    Si650    Si       0.15402    0.49142    0.72096    1.000
    N651     N        0.13739    0.46184    0.74833    1.000
    N652     N        0.17663    0.42344    0.70709    1.000
    Si653    Si       0.01079    0.41502    0.69970    1.000
    N654     N        0.23413    0.44435    0.72935    1.000
    Si655    Si       0.07457    0.29509    0.79774    1.000
    N656     N        0.00464    0.31238    0.76452    1.000
    N657     N        0.04568    0.26532    0.80185    1.000
    N658     N        0.04218    0.36610    0.78105    1.000
    Si659    Si       0.02062    0.27175    0.76545    1.000
    N660     N        0.11651    0.28155    0.79768    1.000
    Si661    Si       0.22458    0.29209    0.80691    1.000
    Si662    Si       0.18736    0.36137    0.77532    1.000
    N663     N        0.19729    0.31897    0.78245    1.000
    Si664    Si       0.15976    0.28938    0.79848    1.000
    N665     N        0.18796    0.43049    0.77915    1.000
    Si666    Si       0.22929    0.42193    0.76555    1.000
    N667     N        0.23788    0.26963    0.76994    1.000
    N668     N        0.08547    0.42220    0.77368    1.000
    Si669    Si       0.00199    0.45217    0.80221    1.000
    Si670    Si       0.10152    0.46616    0.77121    1.000
    N671     N        0.10113    0.48003    0.81350    1.000
    Si672    Si       0.06052    0.40000    0.80200    1.000
    N673     N        0.01624    0.47245    0.76572    1.000
    Si674    Si       0.18138    0.41847    0.82010    1.000
    N675     N        0.18525    0.37653    0.81662    1.000
    N676     N        0.19248    0.26546    0.81852    1.000
    N677     N        0.07801    0.31853    0.83344    1.000
    Si678    Si       0.06696    0.35351    0.85890    1.000
    N679     N        0.02393    0.36027    0.86796    1.000
    N680     N        0.99288    0.30864    0.83694    1.000
    Si681    Si       0.13127    0.47166    0.84598    1.000
    Si682    Si       0.11524    0.29561    0.84241    1.000
    Si683    Si       0.16830    0.35359    0.85027    1.000
    N684     N        0.15097    0.31736    0.83341    1.000
    N685     N        0.13180    0.26801    0.87069    1.000
    N686     N        0.13935    0.37456    0.87455    1.000
    N687     N        0.08126    0.38873    0.83918    1.000
    N688     N        0.00546    0.48776    0.82527    1.000
    Si689    Si       0.00945    0.39942    0.85763    1.000
    N690     N        0.02392    0.41723    0.81882    1.000
    Si691    Si       0.11353    0.40550    0.86058    1.000
    N692     N        0.16818    0.49609    0.84116    1.000
    N693     N        0.21196    0.44001    0.84287    1.000
    N694     N        0.14178    0.42895    0.83667    1.000
    Si695    Si       0.20557    0.48102    0.85597    1.000
    N696     N        0.20299    0.34536    0.87320    1.000
    N697     N        0.08676    0.34056    0.89523    1.000
    N698     N        0.02908    0.30256    0.90855    1.000
    Si699    Si       0.06583    0.31946    0.92446    1.000
    N700     N        0.11913    0.48583    0.88632    1.000
    Si701    Si       0.16002    0.28012    0.90441    1.000
    Si702    Si       0.18948    0.34898    0.91448    1.000
    Si703    Si       0.12492    0.35506    0.91124    1.000
    N704     N        0.20277    0.27387    0.90873    1.000
    N705     N        0.15374    0.32147    0.91189    1.000
    N706     N        0.20521    0.48452    0.89969    1.000
    Si707    Si       0.03069    0.50033    0.92638    1.000
    N708     N        0.01631    0.42959    0.88789    1.000
    N709     N        0.09409    0.42546    0.89433    1.000
    Si710    Si       0.05298    0.43013    0.91045    1.000
    N711     N        0.06193    0.47257    0.92089    1.000
    Si712    Si       0.10794    0.46108    0.92083    1.000
    N713     N        0.15181    0.44841    0.92800    1.000
    N714     N        0.08388    0.27977    0.93425    1.000
    N715     N        0.17573    0.38618    0.93494    1.000
    Si716    Si       0.18774    0.47197    0.93767    1.000
    Si717    Si       0.00625    0.32384    0.87811    1.000
    N718     N        0.06267    0.33970    0.96340    1.000
    N719     N        0.03174    0.27848    0.97575    1.000
    Si720    Si       0.07509    0.38028    0.96413    1.000
    N721     N        0.14941    0.25483    0.93889    1.000
    Si722    Si       0.99444    0.25823    0.99060    1.000
    Si723    Si       0.11254    0.25656    0.96007    1.000
    N724     N        0.20998    0.26908    0.97482    1.000
    N725     N        0.21781    0.33304    0.94310    1.000
    Si726    Si       0.22703    0.29000    0.94104    1.000
    N727     N        0.11377    0.38210    0.94324    1.000
    N728     N        0.10579    0.45097    0.96575    1.000
    N729     N        0.04766    0.40210    0.94210    1.000
    N730     N        0.99835    0.47708    0.94211    1.000
    Si731    Si       0.12313    0.48749    0.98216    1.000
    Si732    Si       0.14347    0.41222    0.95138    1.000
    N733     N        0.20198    0.44626    0.97098    1.000
    Si734    Si       0.20576    0.40261    0.96099    1.000
    Si735    Si       0.04263    0.26884    0.93633    1.000
    N736     N        0.14829    0.41617    0.99333    1.000
    N737     N        0.03334    0.55588    0.02215    1.000
    Si738    Si       0.06692    0.58435    0.01952    1.000
    N739     N        0.04856    0.62351    0.01706    1.000
    Si740    Si       0.01375    0.52420    0.04487    1.000
    N741     N        0.15960    0.56628    0.03956    1.000
    N742     N        0.17133    0.62708    0.01153    1.000
    N743     N        0.21105    0.56485    0.00270    1.000
    Si744    Si       0.17303    0.58560    0.00147    1.000
    Si745    Si       0.20643    0.55918    0.04853    1.000
    Si746    Si       0.01750    0.63448    0.04957    1.000
    N747     N        0.00767    0.67606    0.03749    1.000
    Si748    Si       0.02371    0.71501    0.04728    1.000
    N749     N        0.04688    0.73024    0.01283    1.000
    Si750    Si       0.08916    0.74887    0.01490    1.000
    N751     N        0.23442    0.71579    0.03596    1.000
    N752     N        0.16637    0.74939    0.01878    1.000
    N753     N        0.11226    0.72235    0.04143    1.000
    Si754    Si       0.18087    0.63755    0.05170    1.000
    Si755    Si       0.15144    0.70867    0.02606    1.000
    N756     N        0.17473    0.68197    0.05019    1.000
    N757     N        0.08850    0.50886    0.00251    1.000
    N758     N        0.09395    0.58726    0.05534    1.000
    Si759    Si       0.08440    0.62106    0.08073    1.000
    N760     N        0.04094    0.62940    0.08515    1.000
    N761     N        0.98909    0.54031    0.07557    1.000
    N762     N        0.22265    0.64243    0.05522    1.000
    N763     N        0.13985    0.56434    0.10485    1.000
    N764     N        0.21029    0.57554    0.09047    1.000
    Si765    Si       0.12555    0.55952    0.06173    1.000
    N766     N        0.12099    0.51629    0.06023    1.000
    N767     N        0.16240    0.62876    0.09038    1.000
    Si768    Si       0.17341    0.59163    0.10990    1.000
    N769     N        0.19914    0.51642    0.05215    1.000
    N770     N        0.10469    0.65755    0.06864    1.000
    N771     N        0.05395    0.70655    0.07872    1.000
    Si772    Si       0.09748    0.69958    0.07423    1.000
    N773     N        0.12219    0.70180    0.10921    1.000
    Si774    Si       0.13337    0.65690    0.10808    1.000
    N775     N        0.22484    0.69123    0.10229    1.000
    Si776    Si       0.21710    0.68572    0.06125    1.000
    N777     N        0.01632    0.59299    0.14497    1.000
    N778     N        0.01202    0.52482    0.14317    1.000
    Si779    Si       0.03922    0.55681    0.14983    1.000
    N780     N        0.07140    0.54695    0.12514    1.000
    Si781    Si       0.10073    0.61102    0.16363    1.000
    N782     N        0.10248    0.62461    0.12146    1.000
    Si783    Si       0.02220    0.63119    0.12547    1.000
    Si784    Si       0.11241    0.54559    0.13297    1.000
    N785     N        0.17668    0.60002    0.15182    1.000
    N786     N        0.15694    0.66785    0.14419    1.000
    N787     N        0.22061    0.65274    0.16399    1.000
    Si788    Si       0.99116    0.68164    0.15443    1.000
    N789     N        0.03908    0.66668    0.14539    1.000
    N790     N        0.06045    0.73745    0.13913    1.000
    Si791    Si       0.04219    0.70374    0.12041    1.000
    N792     N        0.99950    0.71173    0.12009    1.000
    Si793    Si       0.23424    0.73295    0.11543    1.000
    N794     N        0.23389    0.74908    0.15464    1.000
    N795     N        0.16993    0.74552    0.14124    1.000
    Si796    Si       0.17982    0.64057    0.16926    1.000
    Si797    Si       0.14464    0.71033    0.14402    1.000
    N798     N        0.12554    0.50567    0.14119    1.000
    N799     N        0.11783    0.57102    0.16772    1.000
    N800     N        0.03689    0.55063    0.19609    1.000
    Si801    Si       0.02911    0.59456    0.20609    1.000
    Si802    Si       0.00555    0.51973    0.18482    1.000
    N803     N        0.06351    0.61304    0.18278    1.000
    Si804    Si       0.15761    0.57238    0.18028    1.000
    Si805    Si       0.21889    0.54063    0.18425    1.000
    N806     N        0.15970    0.58573    0.22226    1.000
    N807     N        0.17626    0.53442    0.17855    1.000
    N808     N        0.21959    0.55615    0.22667    1.000
    N809     N        0.00790    0.63937    0.20108    1.000
    N810     N        0.05868    0.74948    0.21463    1.000
    Si811    Si       0.04689    0.65214    0.18838    1.000
    Si812    Si       0.03736    0.71191    0.21791    1.000
    N813     N        0.06794    0.68161    0.21076    1.000
    N814     N        0.00772    0.70793    0.18768    1.000
    Si815    Si       0.10036    0.74874    0.20054    1.000
    Si816    Si       0.10963    0.68012    0.20393    1.000
    N817     N        0.18521    0.64054    0.21278    1.000
    N818     N        0.18510    0.71348    0.20080    1.000
    Si819    Si       0.19345    0.74764    0.17842    1.000
    N820     N        0.12273    0.63744    0.19123    1.000
    N821     N        0.11668    0.71423    0.17857    1.000
    Si822    Si       0.14391    0.63254    0.22851    1.000
    N823     N        0.03330    0.52578    0.25813    1.000
    N824     N        0.05018    0.59315    0.24574    1.000
    Si825    Si       0.05982    0.55125    0.23747    1.000
    Si826    Si       0.03431    0.61206    0.28099    1.000
    Si827    Si       0.00496    0.54239    0.28606    1.000
    N828     N        0.10225    0.54678    0.25520    1.000
    N829     N        0.12318    0.61758    0.26270    1.000
    N830     N        0.20209    0.60954    0.27353    1.000
    Si831    Si       0.13351    0.57606    0.25577    1.000
    Si832    Si       0.22787    0.51165    0.23608    1.000
    N833     N        0.15762    0.55195    0.28342    1.000
    Si834    Si       0.20090    0.60305    0.23064    1.000
    Si835    Si       0.12172    0.52876    0.29078    1.000
    N836     N        0.00381    0.64418    0.27111    1.000
    N837     N        0.01839    0.71362    0.25861    1.000
    Si838    Si       0.99866    0.68379    0.28435    1.000
    Si839    Si       0.14628    0.69182    0.27715    1.000
    Si840    Si       0.19030    0.68306    0.23048    1.000
    N841     N        0.13934    0.67798    0.23595    1.000
    N842     N        0.18723    0.67766    0.27565    1.000
    N843     N        0.23516    0.68006    0.23006    1.000
    Si844    Si       0.03424    0.73344    0.29210    1.000
    N845     N        0.07686    0.73326    0.29302    1.000
    N846     N        0.01084    0.58179    0.30328    1.000
    N847     N        0.06729    0.62398    0.30898    1.000
    N848     N        0.00618    0.51520    0.32214    1.000
    N849     N        0.10509    0.53428    0.33182    1.000
    Si850    Si       0.99269    0.58473    0.34107    1.000
    Si851    Si       0.11166    0.62982    0.30314    1.000
    N852     N        0.13418    0.60560    0.33073    1.000
    Si853    Si       0.19691    0.57115    0.29413    1.000
    N854     N        0.19371    0.57815    0.33652    1.000
    N855     N        0.02215    0.70193    0.31906    1.000
    Si856    Si       0.10460    0.71158    0.31812    1.000
    N857     N        0.11871    0.67187    0.30633    1.000
    N858     N        0.19713    0.65295    0.33584    1.000
    N859     N        0.13932    0.73219    0.29436    1.000
    Si860    Si       0.21117    0.64867    0.29473    1.000
    Si861    Si       0.16471    0.75078    0.32321    1.000
    N862     N        0.08697    0.59153    0.37215    1.000
    N863     N        0.01915    0.61210    0.36233    1.000
    Si864    Si       0.01385    0.51859    0.36592    1.000
    Si865    Si       0.06048    0.62106    0.35227    1.000
    N866     N        0.05492    0.51488    0.38306    1.000
    Si867    Si       0.11860    0.57055    0.35192    1.000
    N868     N        0.16980    0.61558    0.39111    1.000
    Si869    Si       0.20574    0.54736    0.36563    1.000
    N870     N        0.14367    0.55242    0.38322    1.000
    Si871    Si       0.15493    0.51066    0.38780    1.000
    Si872    Si       0.17394    0.61656    0.34745    1.000
    N873     N        0.18518    0.50714    0.35529    1.000
    Si874    Si       0.20239    0.69212    0.35541    1.000
    Si875    Si       0.01947    0.64093    0.39717    1.000
    Si876    Si       0.00413    0.70182    0.35925    1.000
    Si877    Si       0.06782    0.74766    0.37277    1.000
    N878     N        0.03614    0.72133    0.38173    1.000
    N879     N        0.10128    0.72659    0.35712    1.000
    N880     N        0.06195    0.65332    0.38138    1.000
    Si881    Si       0.13619    0.71510    0.38071    1.000
    N882     N        0.20149    0.68211    0.39776    1.000
    N883     N        0.16838    0.71721    0.35241    1.000
    N884     N        0.13412    0.67261    0.38994    1.000
    N885     N        0.98567    0.66557    0.37901    1.000
    N886     N        0.08248    0.55601    0.43428    1.000
    N887     N        0.03433    0.60656    0.42879    1.000
    Si888    Si       0.00546    0.57949    0.44769    1.000
    N889     N        0.01981    0.53800    0.44521    1.000
    Si890    Si       0.07704    0.59448    0.41520    1.000
    Si891    Si       0.05730    0.52294    0.42707    1.000
    N892     N        0.14130    0.58475    0.45138    1.000
    Si893    Si       0.22716    0.55025    0.44313    1.000
    Si894    Si       0.16249    0.57970    0.41331    1.000
    Si895    Si       0.16801    0.65506    0.40831    1.000
    Si896    Si       0.22382    0.70342    0.42806    1.000
    N897     N        0.20307    0.55959    0.40917    1.000
    N898     N        0.09227    0.63193    0.43615    1.000
    Si899    Si       0.05214    0.63982    0.45388    1.000
    N900     N        0.08378    0.70011    0.42486    1.000
    N901     N        0.02442    0.66896    0.43338    1.000
    Si902    Si       0.10159    0.73908    0.43594    1.000
    N903     N        0.02719    0.73725    0.44584    1.000
    Si904    Si       0.04022    0.70513    0.42158    1.000
    Si905    Si       0.09502    0.66402    0.40603    1.000
    N906     N        0.20817    0.73966    0.44411    1.000
    N907     N        0.16005    0.65631    0.45288    1.000
    N908     N        0.13966    0.73739    0.41864    1.000
    N909     N        0.22438    0.67455    0.46118    1.000
    Si910    Si       0.98751    0.75285    0.44033    1.000
    Si911    Si       0.11558    0.55142    0.46266    1.000
    N912     N        0.99489    0.59763    0.48505    1.000
    N913     N        0.10455    0.55571    0.50365    1.000
    Si914    Si       0.01133    0.62651    0.51295    1.000
    Si915    Si       0.99847    0.51521    0.47655    1.000
    Si916    Si       0.22847    0.54239    0.50735    1.000
    N917     N        0.20120    0.53439    0.47426    1.000
    N918     N        0.18818    0.63766    0.51457    1.000
    N919     N        0.05210    0.63358    0.49671    1.000
    N920     N        0.99778    0.66688    0.49826    1.000
    N921     N        0.08945    0.74469    0.47638    1.000
    N922     N        0.02045    0.72808    0.51450    1.000
    Si923    Si       0.04520    0.74627    0.48158    1.000
    Si924    Si       0.19631    0.74792    0.48674    1.000
    N925     N        0.11897    0.63654    0.50805    1.000
    Si926    Si       0.18636    0.67035    0.48203    1.000
    N927     N        0.18410    0.70928    0.50328    1.000
    N928     N        0.13233    0.51210    0.45906    1.000
    Si929    Si       0.12819    0.62621    0.46469    1.000
    N930     N        0.06281    0.61764    0.55724    1.000
    Si931    Si       0.10656    0.53126    0.53787    1.000
    N932     N        0.08172    0.55036    0.57129    1.000
    N933     N        0.01886    0.55376    0.57198    1.000
    Si934    Si       0.05211    0.58079    0.57658    1.000
    N935     N        0.14001    0.53165    0.56716    1.000
    N936     N        0.15396    0.60821    0.56742    1.000
    Si937    Si       0.19179    0.58653    0.56679    1.000
    N938     N        0.20075    0.55452    0.53987    1.000
    N939     N        0.22597    0.61331    0.56683    1.000
    Si940    Si       0.18332    0.52639    0.57249    1.000
    N941     N        0.07663    0.74883    0.54274    1.000
    Si942    Si       0.07012    0.71663    0.57033    1.000
    N943     N        0.08282    0.68031    0.55130    1.000
    Si944    Si       0.08037    0.64451    0.52647    1.000
    N945     N        0.98820    0.61297    0.54923    1.000
    N946     N        0.22711    0.68184    0.54969    1.000
    N947     N        0.15288    0.67668    0.55738    1.000
    Si948    Si       0.11854    0.67927    0.58113    1.000
    Si949    Si       0.18912    0.70103    0.54633    1.000
    Si950    Si       0.22755    0.64112    0.53434    1.000
    Si951    Si       0.15046    0.63894    0.53709    1.000
    N952     N        0.19393    0.73739    0.56998    1.000
    N953     N        0.98852    0.68110    0.56478    1.000
    Si954    Si       0.03356    0.51509    0.58324    1.000
    N955     N        0.03096    0.73557    0.58350    1.000
    Si956    Si       0.98950    0.69918    0.52461    1.000
    N957     N        0.04902    0.60164    0.61461    1.000
    N958     N        0.04434    0.51665    0.62810    1.000
    Si959    Si       0.11222    0.54374    0.60033    1.000
    N960     N        0.10987    0.50801    0.62568    1.000
    N961     N        0.16345    0.70953    0.63128    1.000
    N962     N        0.11768    0.57960    0.62307    1.000
    N963     N        0.18930    0.56055    0.60203    1.000
    Si964    Si       0.14008    0.61443    0.60891    1.000
    Si965    Si       0.12651    0.73349    0.62826    1.000
    Si966    Si       0.06509    0.63736    0.59605    1.000
    N967     N        0.10252    0.71593    0.59878    1.000
    N968     N        0.04305    0.67217    0.61165    1.000
    Si969    Si       0.01083    0.69933    0.59735    1.000
    N970     N        0.10825    0.64494    0.60372    1.000
    N971     N        0.99894    0.70868    0.63751    1.000
    Si972    Si       0.18079    0.74517    0.61146    1.000
    N973     N        0.17152    0.63481    0.63164    1.000
    N974     N        0.06628    0.60443    0.68205    1.000
    N975     N        0.08234    0.54141    0.68414    1.000
    Si976    Si       0.04401    0.53091    0.66873    1.000
    Si977    Si       0.09896    0.58162    0.66439    1.000
    N978     N        0.01594    0.56461    0.66426    1.000
    Si979    Si       0.03148    0.60462    0.65625    1.000
    N980     N        0.16165    0.54004    0.66582    1.000
    N981     N        0.21043    0.59046    0.67071    1.000
    N982     N        0.12887    0.59657    0.69059    1.000
    N983     N        0.22942    0.52802    0.64480    1.000
    Si984    Si       0.16195    0.67294    0.65172    1.000
    N985     N        0.05419    0.69496    0.68543    1.000
    N986     N        0.00893    0.64070    0.66450    1.000
    Si987    Si       0.09733    0.69957    0.69059    1.000
    Si988    Si       0.02792    0.67915    0.65223    1.000
    N989     N        0.11124    0.73381    0.66697    1.000
    Si990    Si       0.20956    0.63145    0.65397    1.000
    N991     N        0.12678    0.66777    0.67936    1.000
    N992     N        0.19775    0.66836    0.67826    1.000
    Si993    Si       0.19662    0.55696    0.64552    1.000
    Si994    Si       0.06560    0.60208    0.72668    1.000
    N995     N        0.08086    0.56611    0.74932    1.000
    Si996    Si       0.08987    0.52987    0.72623    1.000
    N997     N        0.02943    0.60147    0.74870    1.000
    N998     N        0.18084    0.57333    0.73214    1.000
    N999     N        0.13291    0.52896    0.72558    1.000
    Si1000   Si       0.20301    0.53904    0.74434    1.000
    Si1001   Si       0.17214    0.60918    0.75466    1.000
    N1002    N        0.09250    0.63841    0.73216    1.000
    N1003    N        0.02519    0.74286    0.73853    1.000
    Si1004   Si       0.02868    0.70251    0.72278    1.000
    N1005    N        0.10439    0.70668    0.73156    1.000
    Si1006   Si       0.08472    0.67314    0.75350    1.000
    N1007    N        0.04255    0.67896    0.75727    1.000
    N1008    N        0.98780    0.69120    0.70717    1.000
    Si1009   Si       0.17910    0.75650    0.72651    1.000
    Si1010   Si       0.11489    0.74587    0.74942    1.000
    Si1011   Si       0.19340    0.67693    0.72204    1.000
    N1012    N        0.17977    0.71594    0.73711    1.000
    N1013    N        0.16618    0.64387    0.72884    1.000
    Si1014   Si       0.12737    0.63717    0.70791    1.000
    Si1015   Si       0.15192    0.56105    0.70205    1.000
    N1016    N        0.05477    0.53096    0.79829    1.000
    Si1017   Si       0.03774    0.56534    0.77544    1.000
    Si1018   Si       0.10673    0.57228    0.78324    1.000
    N1019    N        0.01924    0.58590    0.81098    1.000
    N1020    N        0.08429    0.60092    0.81135    1.000
    N1021    N        0.00238    0.53960    0.76563    1.000
    Si1022   Si       0.02094    0.50777    0.78866    1.000
    Si1023   Si       0.11331    0.70658    0.80970    1.000
    Si1024   Si       0.19536    0.70387    0.78094    1.000
    N1025    N        0.13661    0.60435    0.77754    1.000
    N1026    N        0.12737    0.54011    0.80075    1.000
    N1027    N        0.20077    0.52752    0.78438    1.000
    N1028    N        0.20598    0.61067    0.77926    1.000
    Si1029   Si       0.16919    0.53074    0.81318    1.000
    Si1030   Si       0.11683    0.62856    0.80633    1.000
    Si1031   Si       0.21212    0.59123    0.81674    1.000
    N1032    N        0.10396    0.66832    0.79176    1.000
    Si1033   Si       0.02433    0.67468    0.79592    1.000
    Si1034   Si       0.99674    0.74398    0.77190    1.000
    N1035    N        0.10001    0.74235    0.78916    1.000
    N1036    N        0.00640    0.71293    0.80454    1.000
    N1037    N        0.15762    0.70634    0.80745    1.000
    N1038    N        0.21621    0.72343    0.81483    1.000
    Si1039   Si       0.09084    0.52130    0.82037    1.000
    N1040    N        0.21876    0.67274    0.75908    1.000
    N1041    N        0.08679    0.53781    0.86036    1.000
    Si1042   Si       0.04650    0.61265    0.83051    1.000
    N1043    N        0.04394    0.59540    0.87457    1.000
    Si1044   Si       0.99168    0.50921    0.86086    1.000
    N1045    N        0.18209    0.56543    0.83530    1.000
    N1046    N        0.21645    0.61897    0.84973    1.000
    N1047    N        0.21707    0.73786    0.87952    1.000
    N1048    N        0.02880    0.71153    0.86971    1.000
    N1049    N        0.09785    0.70066    0.85148    1.000
    Si1050   Si       0.05965    0.68216    0.86271    1.000
    N1051    N        0.04328    0.65518    0.83127    1.000
    Si1052   Si       0.99146    0.71566    0.84681    1.000
    Si1053   Si       0.17623    0.63787    0.86358    1.000
    N1054    N        0.15510    0.73949    0.87109    1.000
    N1055    N        0.19105    0.67841    0.86655    1.000
    N1056    N        0.14637    0.63700    0.83468    1.000
    Si1057   Si       0.18249    0.71544    0.84392    1.000
    N1058    N        0.08285    0.55725    0.91862    1.000
    N1059    N        0.02328    0.52145    0.88741    1.000
    Si1060   Si       0.03235    0.62422    0.90404    1.000
    Si1061   Si       0.05404    0.55464    0.88371    1.000
    N1062    N        0.99012    0.62317    0.91010    1.000
    Si1063   Si       0.11249    0.52945    0.89573    1.000
    N1064    N        0.11115    0.62690    0.93506    1.000
    N1065    N        0.16411    0.60896    0.89097    1.000
    N1066    N        0.15357    0.54311    0.90026    1.000
    N1067    N        0.22028    0.56129    0.89576    1.000
    Si1068   Si       0.22891    0.51970    0.90918    1.000
    Si1069   Si       0.15290    0.61460    0.93211    1.000
    Si1070   Si       0.04397    0.73984    0.89783    1.000
    Si1071   Si       0.08930    0.66446    0.93036    1.000
    N1072    N        0.06011    0.65901    0.89834    1.000
    N1073    N        0.08425    0.75395    0.89260    1.000
    Si1074   Si       0.18510    0.74843    0.90758    1.000
    Si1075   Si       0.11658    0.72349    0.88471    1.000
    Si1076   Si       0.22756    0.69501    0.88288    1.000
    N1077    N        0.11442    0.69716    0.91953    1.000
    N1078    N        0.23627    0.68891    0.92296    1.000
    Si1079   Si       0.18139    0.56867    0.88006    1.000
    N1080    N        0.03613    0.73465    0.94014    1.000
    N1081    N        0.03911    0.52724    0.95732    1.000
    N1082    N        0.08756    0.57359    0.98091    1.000
    Si1083   Si       0.08073    0.53307    0.96377    1.000
    Si1084   Si       0.01109    0.54175    0.98602    1.000
    N1085    N        0.04280    0.61120    0.94581    1.000
    Si1086   Si       0.08182    0.59412    0.94190    1.000
    N1087    N        0.16442    0.73794    0.94390    1.000
    N1088    N        0.14844    0.69048    0.98704    1.000
    N1089    N        0.15915    0.57964    0.96003    1.000
    Si1090   Si       0.22399    0.53153    0.97956    1.000
    N1091    N        0.11969    0.51581    0.94809    1.000
    Si1092   Si       0.15802    0.53935    0.94195    1.000
    N1093    N        0.19115    0.51379    0.95417    1.000
    Si1094   Si       0.04056    0.64007    0.97836    1.000
    N1095    N        0.06578    0.67312    0.96681    1.000
    Si1096   Si       0.05805    0.71538    0.97243    1.000
    N1097    N        0.09729    0.73474    0.97508    1.000
    N1098    N        0.99878    0.64822    0.97541    1.000
    N1099    N        0.98805    0.56970    0.96597    1.000
    Si1100   Si       0.22489    0.65106    0.94145    1.000
    N1101    N        0.18315    0.64392    0.94439    1.000
    Si1102   Si       0.17984    0.66018    0.98373    1.000
    Si1103   Si       0.13033    0.71411    0.95723    1.000
    N1104    N        0.22001    0.67187    0.98305    1.000
    N1105    N        0.22362    0.74430    0.96989    1.000
    Si1106   Si       0.08361    0.82815    0.03358    1.000
    N1107    N        0.10232    0.78674    0.02841    1.000
    N1108    N        0.00038    0.85726    0.00576    1.000
    Si1109   Si       0.00823    0.86056    0.04834    1.000
    Si1110   Si       0.14448    0.77978    0.03884    1.000
    N1111    N        0.16544    0.81892    0.03432    1.000
    N1112    N        0.16752    0.87873    0.01438    1.000
    Si1113   Si       0.17902    0.85690    0.04991    1.000
    N1114    N        0.04533    0.94223    0.02983    1.000
    Si1115   Si       0.08485    0.93183    0.01240    1.000
    Si1116   Si       0.01073    0.96658    0.02820    1.000
    N1117    N        0.08317    0.89819    0.04633    1.000
    N1118    N        0.02305    0.00492    0.04891    1.000
    Si1119   Si       0.16939    0.95058    0.01978    1.000
    N1120    N        0.12985    0.93472    0.01406    1.000
    N1121    N        0.15993    0.99481    0.01522    1.000
    N1122    N        0.07156    0.83855    0.99451    1.000
    Si1123   Si       0.05848    0.84059    0.09794    1.000
    Si1124   Si       0.99355    0.87542    0.10747    1.000
    N1125    N        0.10973    0.84099    0.06643    1.000
    N1126    N        0.04540    0.83799    0.05764    1.000
    N1127    N        0.07862    0.80199    0.11155    1.000
    N1128    N        0.20864    0.75357    0.08525    1.000
    N1129    N        0.20200    0.81458    0.11055    1.000
    Si1130   Si       0.11959    0.81211    0.09747    1.000
    N1131    N        0.14626    0.77996    0.08263    1.000
    N1132    N        0.16545    0.87282    0.08974    1.000
    Si1133   Si       0.23417    0.81717    0.07971    1.000
    Si1134   Si       0.18012    0.77585    0.10900    1.000
    N1135    N        0.22207    0.85346    0.05611    1.000
    Si1136   Si       0.10350    0.96244    0.08927    1.000
    N1137    N        0.06285    0.94488    0.10010    1.000
    Si1138   Si       0.05098    0.91869    0.06786    1.000
    N1139    N        0.01559    0.89524    0.07371    1.000
    N1140    N        0.18760    0.00200    0.08577    1.000
    Si1141   Si       0.11103    0.88605    0.07935    1.000
    Si1142   Si       0.21601    0.97187    0.07117    1.000
    Si1143   Si       0.16976    0.91849    0.08949    1.000
    N1144    N        0.19049    0.93905    0.05607    1.000
    N1145    N        0.12844    0.92696    0.08748    1.000
    N1146    N        0.09395    0.99070    0.05766    1.000
    Si1147   Si       0.06918    0.77717    0.14614    1.000
    Si1148   Si       0.00790    0.81737    0.14592    1.000
    N1149    N        0.02561    0.85343    0.12743    1.000
    Si1150   Si       0.05929    0.88003    0.14682    1.000
    N1151    N        0.03599    0.79501    0.16861    1.000
    N1152    N        0.18315    0.00763    0.15838    1.000
    N1153    N        0.12525    0.99022    0.11616    1.000
    N1154    N        0.13732    0.82564    0.13431    1.000
    Si1155   Si       0.17543    0.84616    0.12373    1.000
    N1156    N        0.18334    0.86375    0.16225    1.000
    Si1157   Si       0.11504    0.82425    0.17234    1.000
    N1158    N        0.04597    0.91622    0.16168    1.000
    N1159    N        0.01070    0.97459    0.13864    1.000
    Si1160   Si       0.04886    0.95404    0.14133    1.000
    N1161    N        0.06508    0.98629    0.16816    1.000
    Si1162   Si       0.22782    0.94066    0.13266    1.000
    Si1163   Si       0.16918    0.98699    0.12285    1.000
    N1164    N        0.18594    0.94535    0.12081    1.000
    N1165    N        0.23556    0.95794    0.17134    1.000
    Si1166   Si       0.22364    0.00059    0.16541    1.000
    N1167    N        0.10062    0.78311    0.17402    1.000
    N1168    N        0.08121    0.87542    0.10990    1.000
    N1169    N        0.99286    0.79487    0.11377    1.000
    Si1170   Si       0.06828    0.85919    0.21629    1.000
    Si1171   Si       0.03817    0.78730    0.20985    1.000
    N1172    N        0.08457    0.85531    0.17662    1.000
    N1173    N        0.99901    0.78217    0.22898    1.000
    N1174    N        0.21509    0.85046    0.22245    1.000
    Si1175   Si       0.17523    0.85970    0.20429    1.000
    N1176    N        0.19186    0.78237    0.20238    1.000
    N1177    N        0.14406    0.82843    0.20537    1.000
    Si1178   Si       0.22279    0.80833    0.21617    1.000
    Si1179   Si       0.15539    0.79291    0.22713    1.000
    N1180    N        0.03257    0.88277    0.21955    1.000
    N1181    N        0.07491    0.94311    0.22173    1.000
    Si1182   Si       0.04108    0.92277    0.20467    1.000
    Si1183   Si       0.08916    0.98429    0.20694    1.000
    N1184    N        0.12159    0.00204    0.18362    1.000
    N1185    N        0.23091    0.91433    0.22523    1.000
    N1186    N        0.00331    0.93849    0.22588    1.000
    N1187    N        0.12376    0.75993    0.23375    1.000
    N1188    N        0.09374    0.86273    0.25187    1.000
    Si1189   Si       0.07496    0.82788    0.26934    1.000
    N1190    N        0.10078    0.79878    0.28591    1.000
    Si1191   Si       0.10849    0.75761    0.27376    1.000
    N1192    N        0.05824    0.81799    0.22898    1.000
    N1193    N        0.16487    0.79855    0.26774    1.000
    Si1194   Si       0.20429    0.79762    0.28812    1.000
    N1195    N        0.23174    0.79019    0.25445    1.000
    Si1196   Si       0.15737    0.99254    0.25425    1.000
    N1197    N        0.99450    0.88203    0.27837    1.000
    N1198    N        0.99031    0.98403    0.27998    1.000
    Si1199   Si       0.08553    0.94988    0.26648    1.000
    Si1200   Si       0.99644    0.89591    0.23690    1.000
    N1201    N        0.04519    0.92423    0.28352    1.000
    N1202    N        0.06515    0.98624    0.28792    1.000
    N1203    N        0.16035    0.89142    0.23322    1.000
    N1204    N        0.19964    0.89932    0.28520    1.000
    N1205    N        0.23654    0.99786    0.26255    1.000
    N1206    N        0.18083    0.95752    0.25845    1.000
    N1207    N        0.11486    0.98190    0.25132    1.000
    Si1208   Si       0.20618    0.97926    0.28810    1.000
    Si1209   Si       0.19298    0.91756    0.24556    1.000
    Si1210   Si       0.12801    0.88552    0.26608    1.000
    N1211    N        0.11347    0.92133    0.28620    1.000
    Si1212   Si       0.03456    0.80658    0.32591    1.000
    N1213    N        0.01938    0.77518    0.29696    1.000
    N1214    N        0.04599    0.84110    0.29694    1.000
    Si1215   Si       0.03476    0.88415    0.29686    1.000
    N1216    N        0.03376    0.88376    0.34130    1.000
    N1217    N        0.15174    0.79233    0.33644    1.000
    Si1218   Si       0.13854    0.81353    0.29984    1.000
    N1219    N        0.20973    0.83715    0.30431    1.000
    N1220    N        0.14348    0.85645    0.30073    1.000
    Si1221   Si       0.18138    0.87403    0.31978    1.000
    N1222    N        0.20506    0.76064    0.31014    1.000
    N1223    N        0.03470    0.96413    0.33691    1.000
    Si1224   Si       0.07115    0.98393    0.33198    1.000
    N1225    N        0.10927    0.96422    0.34261    1.000
    Si1226   Si       0.02727    0.96215    0.29468    1.000
    N1227    N        0.21838    0.95468    0.32283    1.000
    N1228    N        0.16130    0.91409    0.33717    1.000
    Si1229   Si       0.11914    0.92367    0.33339    1.000
    Si1230   Si       0.07490    0.80786    0.39122    1.000
    Si1231   Si       0.99780    0.81840    0.39378    1.000
    N1232    N        0.05998    0.78781    0.35454    1.000
    Si1233   Si       0.11042    0.87388    0.39232    1.000
    N1234    N        0.00165    0.81506    0.35108    1.000
    N1235    N        0.11313    0.82966    0.38622    1.000
    Si1236   Si       0.15324    0.81825    0.37368    1.000
    N1237    N        0.17465    0.85523    0.36138    1.000
    N1238    N        0.02785    0.92558    0.39319    1.000
    Si1239   Si       0.05541    0.89745    0.37617    1.000
    Si1240   Si       0.01804    0.96533    0.37602    1.000
    N1241    N        0.09525    0.89771    0.35962    1.000
    N1242    N        0.04503    0.98689    0.40023    1.000
    Si1243   Si       0.13307    0.99453    0.36476    1.000
    Si1244   Si       0.18205    0.88509    0.39170    1.000
    N1245    N        0.20437    0.92045    0.38510    1.000
    N1246    N        0.11993    0.99349    0.40513    1.000
    N1247    N        0.17319    0.98420    0.36648    1.000
    Si1248   Si       0.18877    0.94530    0.35219    1.000
    Si1249   Si       0.20259    0.00462    0.39349    1.000
    Si1250   Si       0.04239    0.85684    0.43803    1.000
    N1251    N        0.07094    0.87981    0.41353    1.000
    N1252    N        0.03742    0.82507    0.41055    1.000
    N1253    N        0.00624    0.88004    0.44801    1.000
    N1254    N        0.08199    0.76790    0.41041    1.000
    Si1255   Si       0.19368    0.82765    0.43906    1.000
    N1256    N        0.20450    0.86778    0.42469    1.000
    N1257    N        0.22870    0.80977    0.45704    1.000
    Si1258   Si       0.17147    0.76417    0.43239    1.000
    N1259    N        0.17533    0.80119    0.40907    1.000
    Si1260   Si       0.18903    0.95868    0.45999    1.000
    Si1261   Si       0.08127    0.98178    0.42413    1.000
    Si1262   Si       0.00422    0.92093    0.42825    1.000
    N1263    N        0.07885    0.95351    0.45817    1.000
    N1264    N        0.00908    0.95111    0.45826    1.000
    Si1265   Si       0.15414    0.88404    0.45739    1.000
    N1266    N        0.19266    0.99915    0.43825    1.000
    N1267    N        0.14567    0.96519    0.46030    1.000
    N1268    N        0.14478    0.88634    0.41414    1.000
    Si1269   Si       0.22096    0.89977    0.44955    1.000
    Si1270   Si       0.14671    0.00293    0.43932    1.000
    N1271    N        0.22621    0.94378    0.44586    1.000
    N1272    N        0.04704    0.78565    0.50162    1.000
    Si1273   Si       0.08989    0.77259    0.50868    1.000
    Si1274   Si       0.04393    0.82880    0.51079    1.000
    N1275    N        0.06146    0.85148    0.47891    1.000
    N1276    N        0.00944    0.85280    0.51768    1.000
    N1277    N        0.11438    0.80771    0.51246    1.000
    Si1278   Si       0.15494    0.80990    0.49796    1.000
    N1279    N        0.22307    0.77178    0.51300    1.000
    N1280    N        0.16418    0.77424    0.47530    1.000
    N1281    N        0.19476    0.96593    0.50363    1.000
    Si1282   Si       0.08517    0.88538    0.49567    1.000
    Si1283   Si       0.01071    0.88990    0.49399    1.000
    Si1284   Si       0.04386    0.94946    0.48451    1.000
    N1285    N        0.04851    0.91098    0.50251    1.000
    N1286    N        0.04383    0.98143    0.51335    1.000
    N1287    N        0.10976    0.94995    0.52357    1.000
    N1288    N        0.18513    0.90835    0.47595    1.000
    Si1289   Si       0.19551    0.92334    0.51559    1.000
    Si1290   Si       0.11454    0.94343    0.47882    1.000
    N1291    N        0.11891    0.90026    0.47368    1.000
    N1292    N        0.23245    0.84101    0.52607    1.000
    N1293    N        0.16203    0.84125    0.46703    1.000
    N1294    N        0.06331    0.83010    0.55068    1.000
    N1295    N        0.00573    0.79164    0.55573    1.000
    N1296    N        0.10773    0.87633    0.53345    1.000
    Si1297   Si       0.03269    0.76258    0.53931    1.000
    Si1298   Si       0.10583    0.83432    0.54631    1.000
    Si1299   Si       0.20561    0.83190    0.55900    1.000
    N1300    N        0.17257    0.81738    0.53673    1.000
    N1301    N        0.22486    0.79770    0.58220    1.000
    Si1302   Si       0.22585    0.76373    0.55381    1.000
    N1303    N        0.06935    0.99254    0.57521    1.000
    Si1304   Si       0.08346    0.98348    0.53340    1.000
    Si1305   Si       0.01071    0.00524    0.53130    1.000
    Si1306   Si       0.12480    0.91531    0.54700    1.000
    N1307    N        0.23454    0.91183    0.53005    1.000
    N1308    N        0.16876    0.91493    0.54853    1.000
    Si1309   Si       0.19279    0.90846    0.58377    1.000
    N1310    N        0.00372    0.00686    0.57368    1.000
    Si1311   Si       0.21478    0.99579    0.52691    1.000
    N1312    N        0.05841    0.87292    0.60347    1.000
    Si1313   Si       0.01197    0.77377    0.59810    1.000
    N1314    N        0.04241    0.79995    0.61347    1.000
    Si1315   Si       0.10279    0.87471    0.60097    1.000
    Si1316   Si       0.04079    0.83680    0.58736    1.000
    N1317    N        0.99799    0.84772    0.58677    1.000
    N1318    N        0.11941    0.83627    0.59076    1.000
    Si1319   Si       0.20955    0.84714    0.62537    1.000
    Si1320   Si       0.13507    0.81124    0.62411    1.000
    N1321    N        0.14572    0.76999    0.61170    1.000
    N1322    N        0.17321    0.82466    0.63717    1.000
    N1323    N        0.20854    0.76324    0.64064    1.000
    N1324    N        0.20436    0.86474    0.58710    1.000
    N1325    N        0.01981    0.96221    0.62369    1.000
    Si1326   Si       0.03437    0.99644    0.60263    1.000
    N1327    N        0.14163    0.98142    0.59643    1.000
    N1328    N        0.20522    0.99756    0.62057    1.000
    N1329    N        0.17256    0.91973    0.62063    1.000
    N1330    N        0.22588    0.93863    0.58934    1.000
    Si1331   Si       0.13594    0.94161    0.61331    1.000
    Si1332   Si       0.23253    0.96485    0.62208    1.000
    N1333    N        0.11416    0.91424    0.58706    1.000
    Si1334   Si       0.10435    0.00480    0.59755    1.000
    N1335    N        0.04931    0.84571    0.66531    1.000
    Si1336   Si       0.06320    0.80489    0.65287    1.000
    N1337    N        0.10608    0.80074    0.65549    1.000
    Si1338   Si       0.01924    0.82772    0.68812    1.000
    N1339    N        0.04218    0.79096    0.68975    1.000
    Si1340   Si       0.06135    0.88145    0.64578    1.000
    Si1341   Si       0.12119    0.77196    0.68555    1.000
    Si1342   Si       0.19644    0.79738    0.66627    1.000
    N1343    N        0.16637    0.77464    0.69021    1.000
    Si1344   Si       0.22717    0.86684    0.69713    1.000
    N1345    N        0.21577    0.87832    0.65595    1.000
    N1346    N        0.20676    0.82781    0.70009    1.000
    N1347    N        0.10746    0.87655    0.64370    1.000
    N1348    N        0.04241    0.91355    0.66525    1.000
    Si1349   Si       0.10337    0.97915    0.67038    1.000
    Si1350   Si       0.00571    0.92913    0.64766    1.000
    N1351    N        0.06561    0.97317    0.69504    1.000
    Si1352   Si       0.05953    0.93031    0.70010    1.000
    Si1353   Si       0.12205    0.90405    0.67163    1.000
    N1354    N        0.11710    0.94287    0.65320    1.000
    N1355    N        0.16251    0.90975    0.68626    1.000
    Si1356   Si       0.19388    0.91693    0.65652    1.000
    N1357    N        0.22527    0.94703    0.66157    1.000
    N1358    N        0.13234    0.99609    0.69754    1.000
    Si1359   Si       0.05308    0.77546    0.72975    1.000
    N1360    N        0.00528    0.84331    0.72411    1.000
    N1361    N        0.09560    0.77193    0.72082    1.000
    Si1362   Si       0.21889    0.81353    0.73965    1.000
    N1363    N        0.21998    0.76896    0.73987    1.000
    N1364    N        0.13450    0.85284    0.74612    1.000
    N1365    N        0.15008    0.77251    0.75319    1.000
    N1366    N        0.03248    0.92797    0.73334    1.000
    N1367    N        0.09473    0.90458    0.70817    1.000
    Si1368   Si       0.99088    0.93522    0.72416    1.000
    Si1369   Si       0.18239    0.92057    0.72267    1.000
    Si1370   Si       0.21487    0.98270    0.75776    1.000
    N1371    N        0.22259    0.90643    0.71624    1.000
    N1372    N        0.19600    0.96458    0.71948    1.000
    Si1373   Si       0.11478    0.89249    0.74563    1.000
    Si1374   Si       0.17357    0.99891    0.71181    1.000
    N1375    N        0.15438    0.91404    0.75227    1.000
    Si1376   Si       0.04630    0.00919    0.71160    1.000
    Si1377   Si       0.08776    0.78216    0.79568    1.000
    Si1378   Si       0.02923    0.80079    0.80280    1.000
    N1379    N        0.05512    0.79515    0.76800    1.000
    N1380    N        0.99334    0.77661    0.79946    1.000
    N1381    N        0.11994    0.81134    0.79643    1.000
    N1382    N        0.19123    0.82363    0.77183    1.000
    Si1383   Si       0.20052    0.82297    0.81537    1.000
    Si1384   Si       0.14711    0.81509    0.76265    1.000
    N1385    N        0.08735    0.90294    0.77680    1.000
    Si1386   Si       0.04551    0.92023    0.77338    1.000
    N1387    N        0.03226    0.95225    0.79970    1.000
    N1388    N        0.01438    0.89443    0.78885    1.000
    N1389    N        0.07659    0.99790    0.81261    1.000
    Si1390   Si       0.99878    0.92642    0.81494    1.000
    N1391    N        0.13765    0.97125    0.79613    1.000
    Si1392   Si       0.16066    0.93658    0.78845    1.000
    N1393    N        0.20183    0.95355    0.78886    1.000
    N1394    N        0.06239    0.78653    0.83043    1.000
    N1395    N        0.09952    0.86630    0.84002    1.000
    Si1396   Si       0.08279    0.79114    0.87000    1.000
    N1397    N        0.01481    0.83663    0.82025    1.000
    N1398    N        0.12430    0.80241    0.86331    1.000
    N1399    N        0.19621    0.78281    0.83474    1.000
    Si1400   Si       0.16249    0.78184    0.86291    1.000
    Si1401   Si       0.12744    0.83376    0.83260    1.000
    N1402    N        0.16991    0.84716    0.83430    1.000
    N1403    N        0.08918    0.93648    0.83901    1.000
    Si1404   Si       0.03854    0.98510    0.82789    1.000
    N1405    N        0.04932    0.98149    0.87148    1.000
    Si1406   Si       0.10902    0.97118    0.82810    1.000
    N1407    N        0.99596    0.94241    0.85345    1.000
    Si1408   Si       0.10176    0.90305    0.81712    1.000
    Si1409   Si       0.17384    0.88960    0.84675    1.000
    N1410    N        0.21436    0.90659    0.84181    1.000
    N1411    N        0.12659    0.98696    0.86483    1.000
    Si1412   Si       0.23269    0.75715    0.84060    1.000
    N1413    N        0.14746    0.91011    0.81994    1.000
    Si1414   Si       0.22891    0.94140    0.82015    1.000
    Si1415   Si       0.03210    0.82087    0.91400    1.000
    N1416    N        0.02347    0.77836    0.89874    1.000
    N1417    N        0.99930    0.84102    0.89407    1.000
    N1418    N        0.10870    0.87066    0.91485    1.000
    N1419    N        0.06614    0.82731    0.88936    1.000
    Si1420   Si       0.08154    0.86654    0.88051    1.000
    N1421    N        0.17982    0.79143    0.90132    1.000
    Si1422   Si       0.15030    0.87376    0.92724    1.000
    Si1423   Si       0.19667    0.81227    0.93491    1.000
    N1424    N        0.23652    0.85943    0.88745    1.000
    N1425    N        0.09449    0.94975    0.91318    1.000
    N1426    N        0.05548    0.90126    0.88434    1.000
    Si1427   Si       0.02929    0.89622    0.92002    1.000
    Si1428   Si       0.06961    0.94307    0.87769    1.000
    Si1429   Si       0.20848    0.88380    0.90944    1.000
    N1430    N        0.17011    0.88791    0.88947    1.000
    Si1431   Si       0.12529    0.98124    0.90940    1.000
    N1432    N        0.21814    0.92309    0.92386    1.000
    N1433    N        0.16571    0.97637    0.92475    1.000
    N1434    N        0.23587    0.99035    0.91113    1.000
    N1435    N        0.02313    0.80566    0.95542    1.000
    Si1436   Si       0.08775    0.86387    0.95828    1.000
    Si1437   Si       0.03136    0.83939    0.98025    1.000
    N1438    N        0.04510    0.86193    0.94254    1.000
    Si1439   Si       0.01090    0.76880    0.94102    1.000
    N1440    N        0.15368    0.91143    0.95234    1.000
    N1441    N        0.12973    0.85359    0.96941    1.000
    N1442    N        0.17766    0.80058    0.97165    1.000
    Si1443   Si       0.16401    0.83825    0.99099    1.000
    N1444    N        0.19040    0.85415    0.93701    1.000
    Si1445   Si       0.18327    0.75774    0.97888    1.000
    N1446    N        0.04066    0.00172    0.94212    1.000
    N1447    N        0.99620    0.97530    0.98857    1.000
    N1448    N        0.09051    0.90412    0.97707    1.000
    Si1449   Si       0.01324    0.96853    0.95159    1.000
    N1450    N        0.08068    0.96625    0.98076    1.000
    Si1451   Si       0.07860    0.93629    0.94932    1.000
    N1452    N        0.03573    0.93147    0.94297    1.000
    Si1453   Si       0.08070    0.00541    0.96264    1.000
    Si1454   Si       0.13553    0.89921    0.98958    1.000
    Si1455   Si       0.18398    0.94128    0.94801    1.000
    N1456    N        0.19803    0.94493    0.98911    1.000
    N1457    N        0.27871    0.06414    0.02555    1.000
    N1458    N        0.37333    0.03574    0.03077    1.000
    Si1459   Si       0.39521    0.06791    0.01200    1.000
    N1460    N        0.42102    0.07366    0.04475    1.000
    N1461    N        0.36968    0.10177    0.00215    1.000
    Si1462   Si       0.27726    0.23314    0.02919    1.000
    N1463    N        0.33745    0.16400    0.01023    1.000
    Si1464   Si       0.26140    0.15950    0.03608    1.000
    N1465    N        0.28672    0.19436    0.04378    1.000
    Si1466   Si       0.32898    0.18508    0.04780    1.000
    N1467    N        0.35558    0.22022    0.04748    1.000
    N1468    N        0.42793    0.20211    0.00898    1.000
    N1469    N        0.45424    0.13590    0.02330    1.000
    Si1470   Si       0.37520    0.14603    0.00801    1.000
    Si1471   Si       0.39076    0.22693    0.01905    1.000
    N1472    N        0.39174    0.15912    0.04669    1.000
    Si1473   Si       0.43361    0.17069    0.03952    1.000
    N1474    N        0.27232    0.14620    0.99594    1.000
    N1475    N        0.32082    0.08548    0.09056    1.000
    Si1476   Si       0.29083    0.06133    0.06851    1.000
    N1477    N        0.24894    0.07061    0.08096    1.000
    N1478    N        0.29073    0.01846    0.07787    1.000
    Si1479   Si       0.30887    0.12883    0.09589    1.000
    Si1480   Si       0.35890    0.08235    0.11245    1.000
    Si1481   Si       0.40324    0.03798    0.06385    1.000
    N1482    N        0.38432    0.11427    0.09967    1.000
    N1483    N        0.38933    0.04926    0.10468    1.000
    N1484    N        0.39353    0.24947    0.09848    1.000
    N1485    N        0.27767    0.13392    0.06695    1.000
    N1486    N        0.33756    0.16023    0.08152    1.000
    Si1487   Si       0.33749    0.25307    0.07049    1.000
    Si1488   Si       0.48489    0.21079    0.08064    1.000
    Si1489   Si       0.42111    0.21254    0.10555    1.000
    N1490    N        0.44996    0.13050    0.08724    1.000
    N1491    N        0.44408    0.19868    0.07122    1.000
    Si1492   Si       0.37962    0.15492    0.08959    1.000
    Si1493   Si       0.45175    0.10319    0.05147    1.000
    N1494    N        0.34855    0.09290    0.15298    1.000
    Si1495   Si       0.30619    0.10259    0.16479    1.000
    N1496    N        0.28933    0.06299    0.16568    1.000
    Si1497   Si       0.42165    0.04143    0.13268    1.000
    N1498    N        0.44848    0.07560    0.12920    1.000
    N1499    N        0.41688    0.12812    0.15786    1.000
    Si1500   Si       0.42424    0.11228    0.11844    1.000
    N1501    N        0.29556    0.13444    0.13690    1.000
    N1502    N        0.28705    0.20457    0.15300    1.000
    Si1503   Si       0.29055    0.24367    0.13473    1.000
    Si1504   Si       0.26972    0.16433    0.15481    1.000
    N1505    N        0.39703    0.17957    0.12046    1.000
    Si1506   Si       0.40253    0.16809    0.16264    1.000
    N1507    N        0.44373    0.23285    0.13708    1.000
    N1508    N        0.37378    0.23307    0.16606    1.000
    Si1509   Si       0.48124    0.25220    0.13494    1.000
    N1510    N        0.32906    0.24377    0.11328    1.000
    Si1511   Si       0.49063    0.07782    0.13721    1.000
    N1512    N        0.23813    0.02231    0.12874    1.000
    Si1513   Si       0.41866    0.24290    0.16983    1.000
    N1514    N        0.25466    0.25210    0.11084    1.000
    N1515    N        0.25928    0.11027    0.19151    1.000
    N1516    N        0.31948    0.02015    0.21044    1.000
    N1517    N        0.32251    0.12449    0.20172    1.000
    N1518    N        0.24703    0.02179    0.19469    1.000
    Si1519   Si       0.24690    0.06757    0.18743    1.000
    Si1520   Si       0.28840    0.02182    0.17865    1.000
    Si1521   Si       0.28889    0.11550    0.22883    1.000
    Si1522   Si       0.36437    0.12047    0.18412    1.000
    N1523    N        0.46120    0.09308    0.20505    1.000
    N1524    N        0.39210    0.09716    0.20855    1.000
    Si1525   Si       0.43013    0.01942    0.20991    1.000
    Si1526   Si       0.42533    0.09035    0.18209    1.000
    N1527    N        0.47224    0.01962    0.21538    1.000
    N1528    N        0.42078    0.04639    0.17766    1.000
    N1529    N        0.26173    0.17224    0.20011    1.000
    Si1530   Si       0.28431    0.20717    0.19655    1.000
    N1531    N        0.26243    0.24247    0.20653    1.000
    N1532    N        0.32129    0.20237    0.21866    1.000
    Si1533   Si       0.33777    0.16128    0.22588    1.000
    Si1534   Si       0.45461    0.18739    0.21398    1.000
    N1535    N        0.48645    0.17065    0.18683    1.000
    Si1536   Si       0.37502    0.20895    0.20393    1.000
    Si1537   Si       0.48889    0.05938    0.20939    1.000
    N1538    N        0.36734    0.16479    0.18938    1.000
    N1539    N        0.42119    0.19870    0.18818    1.000
    Si1540   Si       0.31705    0.04164    0.24754    1.000
    N1541    N        0.29026    0.07481    0.24624    1.000
    N1542    N        0.35807    0.04795    0.25754    1.000
    Si1543   Si       0.24922    0.08187    0.26146    1.000
    N1544    N        0.25143    0.12761    0.25396    1.000
    N1545    N        0.30414    0.01015    0.27572    1.000
    N1546    N        0.37861    0.11084    0.26992    1.000
    N1547    N        0.41840    0.03646    0.24807    1.000
    Si1548   Si       0.38967    0.07496    0.24638    1.000
    Si1549   Si       0.46363    0.11842    0.24165    1.000
    N1550    N        0.44207    0.09496    0.27069    1.000
    Si1551   Si       0.45646    0.05367    0.26635    1.000
    Si1552   Si       0.38434    0.01142    0.26397    1.000
    N1553    N        0.31103    0.13928    0.26134    1.000
    Si1554   Si       0.33238    0.23344    0.24702    1.000
    Si1555   Si       0.27475    0.14837    0.28460    1.000
    N1556    N        0.32569    0.21557    0.28568    1.000
    Si1557   Si       0.40544    0.14440    0.26082    1.000
    N1558    N        0.37558    0.23663    0.23822    1.000
    Si1559   Si       0.46143    0.25696    0.24149    1.000
    N1560    N        0.47973    0.21662    0.23756    1.000
    N1561    N        0.37170    0.17105    0.25510    1.000
    N1562    N        0.44082    0.15428    0.23756    1.000
    N1563    N        0.32942    0.09290    0.32031    1.000
    Si1564   Si       0.24399    0.04529    0.33594    1.000
    N1565    N        0.26560    0.12432    0.31887    1.000
    Si1566   Si       0.35902    0.06886    0.34033    1.000
    N1567    N        0.33571    0.02988    0.34368    1.000
    Si1568   Si       0.34308    0.12250    0.29094    1.000
    N1569    N        0.26676    0.00834    0.33189    1.000
    N1570    N        0.38994    0.20971    0.31599    1.000
    Si1571   Si       0.29301    0.10222    0.34628    1.000
    Si1572   Si       0.42774    0.10895    0.31135    1.000
    N1573    N        0.40091    0.07255    0.32537    1.000
    Si1574   Si       0.41846    0.03232    0.32832    1.000
    N1575    N        0.45514    0.03767    0.30692    1.000
    N1576    N        0.45418    0.11678    0.34497    1.000
    N1577    N        0.34497    0.15748    0.31711    1.000
    Si1578   Si       0.28977    0.21486    0.31372    1.000
    N1579    N        0.26909    0.25273    0.32011    1.000
    N1580    N        0.26075    0.18681    0.29514    1.000
    Si1581   Si       0.42497    0.18585    0.32823    1.000
    Si1582   Si       0.44646    0.24772    0.31225    1.000
    Si1583   Si       0.38348    0.24991    0.33546    1.000
    N1584    N        0.41911    0.15239    0.30199    1.000
    N1585    N        0.46230    0.20784    0.31867    1.000
    Si1586   Si       0.36039    0.18934    0.29291    1.000
    Si1587   Si       0.33560    0.03215    0.38769    1.000
    N1588    N        0.26917    0.06950    0.36060    1.000
    N1589    N        0.35591    0.06983    0.38613    1.000
    Si1590   Si       0.26438    0.05774    0.40209    1.000
    Si1591   Si       0.45162    0.03952    0.38785    1.000
    Si1592   Si       0.43611    0.11890    0.38514    1.000
    N1593    N        0.41905    0.01825    0.36787    1.000
    N1594    N        0.39653    0.12608    0.39927    1.000
    N1595    N        0.43387    0.07749    0.39840    1.000
    Si1596   Si       0.49064    0.13034    0.36832    1.000
    N1597    N        0.31002    0.13177    0.37199    1.000
    N1598    N        0.35380    0.25160    0.36816    1.000
    Si1599   Si       0.33083    0.16687    0.35598    1.000
    N1600    N        0.35795    0.18355    0.38417    1.000
    Si1601   Si       0.34564    0.22343    0.39967    1.000
    Si1602   Si       0.27617    0.20335    0.38861    1.000
    N1603    N        0.25916    0.16548    0.40046    1.000
    N1604    N        0.30064    0.19610    0.35250    1.000
    Si1605   Si       0.39420    0.16926    0.39722    1.000
    N1606    N        0.42817    0.17898    0.37177    1.000
    N1607    N        0.46210    0.22767    0.40332    1.000
    N1608    N        0.46942    0.14036    0.40394    1.000
    N1609    N        0.48709    0.02468    0.36559    1.000
    N1610    N        0.27162    0.09905    0.41769    1.000
    Si1611   Si       0.23884    0.09508    0.44606    1.000
    Si1612   Si       0.39626    0.21106    0.46168    1.000
    Si1613   Si       0.45351    0.18461    0.41062    1.000
    Si1614   Si       0.42585    0.04860    0.45488    1.000
    N1615    N        0.38978    0.07173    0.44679    1.000
    N1616    N        0.45632    0.02562    0.42925    1.000
    N1617    N        0.37142    0.23506    0.43285    1.000
    N1618    N        0.30499    0.22117    0.41718    1.000
    Si1619   Si       0.29555    0.23959    0.45617    1.000
    N1620    N        0.30976    0.14091    0.44893    1.000
    Si1621   Si       0.29147    0.13730    0.41064    1.000
    N1622    N        0.48245    0.19106    0.45176    1.000
    N1623    N        0.41379    0.18599    0.43124    1.000
    Si1624   Si       0.38884    0.08567    0.40738    1.000
    N1625    N        0.29620    0.02882    0.40990    1.000
    N1626    N        0.33069    0.08088    0.48367    1.000
    N1627    N        0.26078    0.09784    0.48363    1.000
    Si1628   Si       0.33442    0.04059    0.50063    1.000
    Si1629   Si       0.30087    0.11274    0.48171    1.000
    Si1630   Si       0.24191    0.09948    0.52301    1.000
    N1631    N        0.30188    0.02583    0.52404    1.000
    Si1632   Si       0.40037    0.01510    0.51301    1.000
    Si1633   Si       0.37367    0.08449    0.48462    1.000
    N1634    N        0.44799    0.06809    0.48625    1.000
    N1635    N        0.39678    0.11767    0.49621    1.000
    Si1636   Si       0.43968    0.10907    0.49885    1.000
    Si1637   Si       0.46709    0.04320    0.51718    1.000
    N1638    N        0.37714    0.05219    0.51707    1.000
    N1639    N        0.40470    0.01321    0.47157    1.000
    N1640    N        0.31233    0.14485    0.51063    1.000
    N1641    N        0.29338    0.20329    0.48069    1.000
    Si1642   Si       0.32170    0.17271    0.47653    1.000
    Si1643   Si       0.26940    0.21259    0.51640    1.000
    N1644    N        0.36152    0.24190    0.51768    1.000
    N1645    N        0.36249    0.18231    0.47693    1.000
    N1646    N        0.48468    0.18984    0.52508    1.000
    N1647    N        0.46557    0.13182    0.47414    1.000
    Si1648   Si       0.38873    0.15975    0.50403    1.000
    N1649    N        0.41803    0.24895    0.47861    1.000
    N1650    N        0.42272    0.18355    0.49369    1.000
    Si1651   Si       0.46370    0.17311    0.48840    1.000
    N1652    N        0.25382    0.17448    0.53067    1.000
    N1653    N        0.33370    0.01325    0.46611    1.000
    N1654    N        0.27325    0.10955    0.55085    1.000
    Si1655   Si       0.30919    0.03377    0.56623    1.000
    N1656    N        0.33568    0.06679    0.56608    1.000
    Si1657   Si       0.25563    0.08413    0.58222    1.000
    Si1658   Si       0.37735    0.06405    0.55923    1.000
    N1659    N        0.44647    0.12808    0.53841    1.000
    N1660    N        0.43905    0.01584    0.52976    1.000
    Si1661   Si       0.48076    0.11056    0.55966    1.000
    N1662    N        0.47903    0.06856    0.55197    1.000
    N1663    N        0.38838    0.02526    0.57975    1.000
    N1664    N        0.39729    0.09528    0.58174    1.000
    Si1665   Si       0.41397    0.13184    0.56510    1.000
    Si1666   Si       0.28790    0.14912    0.54626    1.000
    N1667    N        0.30020    0.21916    0.54621    1.000
    Si1668   Si       0.32261    0.25276    0.53161    1.000
    Si1669   Si       0.39622    0.19105    0.57575    1.000
    Si1670   Si       0.31360    0.19920    0.58454    1.000
    N1671    N        0.38418    0.16106    0.54720    1.000
    N1672    N        0.42504    0.22189    0.56341    1.000
    Si1673   Si       0.46537    0.22254    0.54587    1.000
    Si1674   Si       0.27820    0.02667    0.62807    1.000
    N1675    N        0.24592    0.11070    0.61353    1.000
    N1676    N        0.27537    0.04765    0.58958    1.000
    Si1677   Si       0.36454    0.21959    0.63045    1.000
    Si1678   Si       0.39478    0.09124    0.62596    1.000
    Si1679   Si       0.41018    0.01887    0.61584    1.000
    N1680    N        0.41949    0.05540    0.63473    1.000
    N1681    N        0.47672    0.11914    0.60269    1.000
    N1682    N        0.35569    0.20529    0.59089    1.000
    Si1683   Si       0.26357    0.15212    0.61774    1.000
    N1684    N        0.29577    0.22360    0.61751    1.000
    Si1685   Si       0.25691    0.24522    0.61757    1.000
    N1686    N        0.29378    0.15993    0.58771    1.000
    N1687    N        0.42085    0.16003    0.59901    1.000
    N1688    N        0.40947    0.22335    0.64117    1.000
    Si1689   Si       0.44738    0.14328    0.62824    1.000
    N1690    N        0.35559    0.09165    0.63989    1.000
    N1691    N        0.28797    0.09818    0.65994    1.000
    Si1692   Si       0.32280    0.07338    0.66036    1.000
    Si1693   Si       0.24604    0.08869    0.65037    1.000
    N1694    N        0.31693    0.03272    0.64526    1.000
    N1695    N        0.24317    0.04611    0.64686    1.000
    N1696    N        0.48535    0.08630    0.66043    1.000
    Si1697   Si       0.44329    0.07703    0.66376    1.000
    N1698    N        0.42137    0.11540    0.65322    1.000
    Si1699   Si       0.28731    0.13190    0.68392    1.000
    N1700    N        0.29393    0.22581    0.69306    1.000
    N1701    N        0.27618    0.16583    0.65830    1.000
    Si1702   Si       0.29915    0.20375    0.65562    1.000
    N1703    N        0.34146    0.19558    0.65722    1.000
    Si1704   Si       0.35305    0.17809    0.69507    1.000
    Si1705   Si       0.25127    0.23709    0.69388    1.000
    N1706    N        0.32752    0.14318    0.69944    1.000
    N1707    N        0.44170    0.23456    0.70208    1.000
    Si1708   Si       0.41263    0.13558    0.69357    1.000
    Si1709   Si       0.42605    0.20035    0.67490    1.000
    N1710    N        0.45684    0.16954    0.66222    1.000
    N1711    N        0.39588    0.17342    0.69105    1.000
    Si1712   Si       0.48040    0.25077    0.68916    1.000
    Si1713   Si       0.33902    0.03604    0.72481    1.000
    Si1714   Si       0.34153    0.10995    0.72334    1.000
    N1715    N        0.26616    0.11604    0.71918    1.000
    N1716    N        0.30653    0.03168    0.75333    1.000
    N1717    N        0.33108    0.07233    0.70341    1.000
    N1718    N        0.32158    0.11651    0.76142    1.000
    N1719    N        0.41333    0.20953    0.75612    1.000
    Si1720   Si       0.40497    0.07451    0.73336    1.000
    N1721    N        0.38451    0.10915    0.71455    1.000
    N1722    N        0.38265    0.03756    0.73768    1.000
    Si1723   Si       0.45858    0.02312    0.70685    1.000
    N1724    N        0.49053    0.09320    0.73121    1.000
    N1725    N        0.43525    0.06028    0.70274    1.000
    Si1726   Si       0.32531    0.24499    0.71684    1.000
    N1727    N        0.34894    0.20945    0.72548    1.000
    Si1728   Si       0.47939    0.13368    0.74184    1.000
    Si1729   Si       0.42433    0.24777    0.73710    1.000
    N1730    N        0.43984    0.14210    0.72866    1.000
    Si1731   Si       0.40406    0.00654    0.75531    1.000
    Si1732   Si       0.27796    0.11586    0.76289    1.000
    Si1733   Si       0.41731    0.16464    0.76044    1.000
    Si1734   Si       0.29612    0.04925    0.79327    1.000
    N1735    N        0.26689    0.08154    0.78598    1.000
    Si1736   Si       0.23862    0.08656    0.82006    1.000
    N1737    N        0.48799    0.12125    0.78436    1.000
    N1738    N        0.41745    0.01163    0.79549    1.000
    N1739    N        0.48067    0.04625    0.79330    1.000
    N1740    N        0.41527    0.08828    0.77340    1.000
    Si1741   Si       0.40464    0.09252    0.81696    1.000
    Si1742   Si       0.44694    0.21711    0.79137    1.000
    Si1743   Si       0.34622    0.13715    0.79008    1.000
    N1744    N        0.27755    0.20818    0.77828    1.000
    N1745    N        0.35083    0.22498    0.79632    1.000
    N1746    N        0.25396    0.14799    0.78211    1.000
    Si1747   Si       0.27792    0.17450    0.80518    1.000
    Si1748   Si       0.30905    0.23771    0.78721    1.000
    N1749    N        0.31893    0.15978    0.81532    1.000
    N1750    N        0.44412    0.17124    0.79312    1.000
    Si1751   Si       0.23915    0.22452    0.76853    1.000
    Si1752   Si       0.46222    0.14071    0.81495    1.000
    N1753    N        0.37531    0.15964    0.76936    1.000
    Si1754   Si       0.36977    0.20388    0.76387    1.000
    N1755    N        0.41617    0.23755    0.81690    1.000
    N1756    N        0.36380    0.11041    0.81860    1.000
    Si1757   Si       0.34945    0.07770    0.84109    1.000
    N1758    N        0.31008    0.06105    0.83224    1.000
    Si1759   Si       0.28433    0.05061    0.86547    1.000
    N1760    N        0.24333    0.04822    0.84635    1.000
    N1761    N        0.24667    0.12009    0.84616    1.000
    Si1762   Si       0.24481    0.01242    0.82192    1.000
    N1763    N        0.37691    0.18499    0.84823    1.000
    N1764    N        0.39014    0.05896    0.84057    1.000
    N1765    N        0.43676    0.11676    0.83659    1.000
    Si1766   Si       0.39557    0.01850    0.83032    1.000
    N1767    N        0.48358    0.04371    0.86902    1.000
    N1768    N        0.37513    0.25127    0.86588    1.000
    N1769    N        0.26200    0.18642    0.84295    1.000
    Si1770   Si       0.28256    0.22158    0.85653    1.000
    N1771    N        0.29123    0.24977    0.82505    1.000
    Si1772   Si       0.33626    0.17035    0.85461    1.000
    N1773    N        0.47870    0.22679    0.82013    1.000
    Si1774   Si       0.24043    0.15734    0.86826    1.000
    Si1775   Si       0.44762    0.23885    0.84934    1.000
    Si1776   Si       0.37804    0.22497    0.82865    1.000
    N1777    N        0.48679    0.11761    0.87877    1.000
    N1778    N        0.43673    0.20724    0.87727    1.000
    N1779    N        0.29065    0.00748    0.86967    1.000
    N1780    N        0.32079    0.20511    0.87746    1.000
    N1781    N        0.28437    0.07615    0.90157    1.000
    Si1782   Si       0.31764    0.10444    0.90813    1.000
    N1783    N        0.34530    0.08056    0.88376    1.000
    Si1784   Si       0.25332    0.06567    0.93177    1.000
    Si1785   Si       0.38282    0.06878    0.89982    1.000
    N1786    N        0.37757    0.02635    0.91511    1.000
    N1787    N        0.42497    0.07954    0.90111    1.000
    Si1788   Si       0.48845    0.01957    0.90614    1.000
    Si1789   Si       0.44337    0.11294    0.87989    1.000
    N1790    N        0.37778    0.09886    0.93573    1.000
    N1791    N        0.26429    0.24194    0.88943    1.000
    N1792    N        0.32237    0.14449    0.88779    1.000
    Si1793   Si       0.30012    0.17665    0.90691    1.000
    Si1794   Si       0.35114    0.23004    0.89645    1.000
    N1795    N        0.32679    0.24873    0.92798    1.000
    N1796    N        0.25819    0.16824    0.90658    1.000
    Si1797   Si       0.46439    0.20833    0.90910    1.000
    N1798    N        0.37864    0.20140    0.91485    1.000
    Si1799   Si       0.40228    0.18137    0.88410    1.000
    N1800    N        0.42034    0.14589    0.90146    1.000
    N1801    N        0.33544    0.05280    0.97436    1.000
    N1802    N        0.27014    0.03525    0.95852    1.000
    N1803    N        0.31695    0.12043    0.95142    1.000
    Si1804   Si       0.34694    0.09406    0.96597    1.000
    Si1805   Si       0.29735    0.04161    0.99250    1.000
    Si1806   Si       0.37371    0.03057    0.95897    1.000
    N1807    N        0.41018    0.05128    0.97355    1.000
    N1808    N        0.44530    0.10861    0.95662    1.000
    Si1809   Si       0.43889    0.06628    0.94298    1.000
    Si1810   Si       0.47303    0.12479    0.98490    1.000
    Si1811   Si       0.40745    0.12856    0.94033    1.000
    N1812    N        0.47485    0.04397    0.93830    1.000
    N1813    N        0.37035    0.22326    0.98131    1.000
    N1814    N        0.31254    0.18634    0.94781    1.000
    Si1815   Si       0.32801    0.22459    0.96426    1.000
    Si1816   Si       0.30950    0.15532    0.97741    1.000
    N1817    N        0.29552    0.23931    0.99061    1.000
    Si1818   Si       0.39536    0.19710    0.95407    1.000
    Si1819   Si       0.46430    0.19901    0.98284    1.000
    N1820    N        0.44131    0.20464    0.94543    1.000
    N1821    N        0.39108    0.15581    0.96859    1.000
    N1822    N        0.31397    0.33917    0.03474    1.000
    Si1823   Si       0.27428    0.34115    0.01262    1.000
    Si1824   Si       0.34304    0.36865    0.02436    1.000
    N1825    N        0.25481    0.36873    0.03741    1.000
    N1826    N        0.25943    0.30094    0.00512    1.000
    Si1827   Si       0.41703    0.36311    0.02545    1.000
    Si1828   Si       0.43894    0.28769    0.00992    1.000
    N1829    N        0.47538    0.27832    0.02678    1.000
    N1830    N        0.42822    0.32757    0.00640    1.000
    N1831    N        0.40771    0.26633    0.02998    1.000
    N1832    N        0.37871    0.36148    0.04697    1.000
    N1833    N        0.33186    0.41060    0.03051    1.000
    N1834    N        0.31830    0.47653    0.01268    1.000
    Si1835   Si       0.30566    0.43338    0.00569    1.000
    N1836    N        0.26217    0.42889    0.00326    1.000
    Si1837   Si       0.23854    0.50385    0.04408    1.000
    Si1838   Si       0.47515    0.40315    0.04958    1.000
    Si1839   Si       0.41821    0.43863    0.00729    1.000
    N1840    N        0.44288    0.50644    0.01891    1.000
    N1841    N        0.38729    0.46201    0.02548    1.000
    N1842    N        0.44871    0.43777    0.03741    1.000
    Si1843   Si       0.39852    0.50502    0.02838    1.000
    N1844    N        0.41246    0.39561    0.99738    1.000
    Si1845   Si       0.46569    0.47723    0.04570    1.000
    Si1846   Si       0.35841    0.44002    0.05110    1.000
    Si1847   Si       0.30957    0.49321    0.05313    1.000
    Si1848   Si       0.26509    0.27984    0.08017    1.000
    Si1849   Si       0.32420    0.32209    0.07287    1.000
    N1850    N        0.29263    0.30751    0.10014    1.000
    N1851    N        0.33172    0.35994    0.09591    1.000
    N1852    N        0.25345    0.36810    0.10358    1.000
    N1853    N        0.35651    0.29383    0.06928    1.000
    N1854    N        0.29691    0.26240    0.05509    1.000
    N1855    N        0.45931    0.49236    0.08542    1.000
    N1856    N        0.43723    0.30033    0.08012    1.000
    Si1857   Si       0.45490    0.34093    0.08877    1.000
    Si1858   Si       0.47716    0.28616    0.06950    1.000
    Si1859   Si       0.39932    0.28085    0.06960    1.000
    Si1860   Si       0.37263    0.37461    0.08841    1.000
    N1861    N        0.44937    0.37003    0.05556    1.000
    N1862    N        0.26906    0.48128    0.06619    1.000
    N1863    N        0.33624    0.46928    0.07667    1.000
    Si1864   Si       0.26561    0.45926    0.10451    1.000
    Si1865   Si       0.33424    0.44141    0.11074    1.000
    N1866    N        0.36455    0.41768    0.08944    1.000
    N1867    N        0.29502    0.42354    0.11259    1.000
    Si1868   Si       0.31089    0.31278    0.14136    1.000
    N1869    N        0.29490    0.35429    0.15111    1.000
    N1870    N        0.35192    0.30251    0.13846    1.000
    N1871    N        0.29477    0.27783    0.16213    1.000
    Si1872   Si       0.29572    0.37587    0.11328    1.000
    Si1873   Si       0.36530    0.26129    0.13226    1.000
    N1874    N        0.41212    0.29036    0.15586    1.000
    N1875    N        0.46403    0.36073    0.12640    1.000
    Si1876   Si       0.38764    0.32434    0.14484    1.000
    N1877    N        0.47734    0.29478    0.14660    1.000
    Si1878   Si       0.42416    0.37338    0.14240    1.000
    N1879    N        0.48139    0.46174    0.15236    1.000
    N1880    N        0.40133    0.35084    0.11081    1.000
    N1881    N        0.28007    0.48994    0.13250    1.000
    N1882    N        0.34696    0.45744    0.14866    1.000
    Si1883   Si       0.48745    0.33616    0.15543    1.000
    N1884    N        0.40910    0.48327    0.13199    1.000
    N1885    N        0.43627    0.41463    0.13996    1.000
    Si1886   Si       0.47680    0.40295    0.12624    1.000
    Si1887   Si       0.36877    0.49526    0.14451    1.000
    Si1888   Si       0.43743    0.45747    0.15520    1.000
    Si1889   Si       0.48802    0.49054    0.11914    1.000
    Si1890   Si       0.28491    0.28045    0.20506    1.000
    N1891    N        0.33413    0.33972    0.20679    1.000
    Si1892   Si       0.30626    0.36927    0.19064    1.000
    N1893    N        0.26055    0.31217    0.21749    1.000
    Si1894   Si       0.36821    0.37005    0.20090    1.000
    N1895    N        0.46431    0.33365    0.19336    1.000
    N1896    N        0.44171    0.26103    0.20285    1.000
    Si1897   Si       0.44691    0.29743    0.17937    1.000
    N1898    N        0.39472    0.35770    0.17253    1.000
    N1899    N        0.27674    0.38847    0.21231    1.000
    N1900    N        0.33948    0.39777    0.18244    1.000
    Si1901   Si       0.33399    0.43984    0.18580    1.000
    N1902    N        0.29540    0.45550    0.19107    1.000
    Si1903   Si       0.26246    0.42967    0.20468    1.000
    Si1904   Si       0.27774    0.49198    0.17633    1.000
    N1905    N        0.24212    0.50377    0.19636    1.000
    N1906    N        0.42849    0.46320    0.19585    1.000
    N1907    N        0.36432    0.44772    0.21662    1.000
    Si1908   Si       0.39245    0.48192    0.21194    1.000
    Si1909   Si       0.45530    0.45487    0.23096    1.000
    Si1910   Si       0.33971    0.31087    0.23905    1.000
    N1911    N        0.32412    0.32578    0.27821    1.000
    N1912    N        0.31885    0.27218    0.23133    1.000
    Si1913   Si       0.42965    0.50602    0.27426    1.000
    Si1914   Si       0.39024    0.26886    0.26227    1.000
    Si1915   Si       0.40230    0.34758    0.25895    1.000
    N1916    N        0.44482    0.33443    0.26228    1.000
    N1917    N        0.38220    0.30941    0.24484    1.000
    Si1918   Si       0.47862    0.33119    0.23482    1.000
    N1919    N        0.38729    0.38103    0.23812    1.000
    N1920    N        0.25216    0.43636    0.24744    1.000
    Si1921   Si       0.25203    0.39123    0.24941    1.000
    N1922    N        0.25793    0.50015    0.26558    1.000
    N1923    N        0.33078    0.50181    0.27095    1.000
    Si1924   Si       0.25764    0.46154    0.28175    1.000
    N1925    N        0.36805    0.43994    0.28754    1.000
    Si1926   Si       0.38325    0.42262    0.24823    1.000
    N1927    N        0.39426    0.50190    0.25012    1.000
    N1928    N        0.42516    0.43482    0.25678    1.000
    N1929    N        0.46024    0.49564    0.24749    1.000
    N1930    N        0.43174    0.25826    0.27267    1.000
    N1931    N        0.26368    0.37700    0.28619    1.000
    N1932    N        0.27126    0.32996    0.32650    1.000
    Si1933   Si       0.29855    0.35235    0.29959    1.000
    Si1934   Si       0.26377    0.29132    0.34317    1.000
    Si1935   Si       0.35611    0.31688    0.30634    1.000
    N1936    N        0.32165    0.38024    0.32364    1.000
    N1937    N        0.33967    0.31818    0.34667    1.000
    Si1938   Si       0.45193    0.49604    0.34180    1.000
    Si1939   Si       0.46323    0.31783    0.29992    1.000
    N1940    N        0.37252    0.27693    0.30200    1.000
    N1941    N        0.44822    0.34911    0.32611    1.000
    N1942    N        0.38689    0.35037    0.30102    1.000
    Si1943   Si       0.40980    0.37079    0.33153    1.000
    N1944    N        0.47791    0.27809    0.31418    1.000
    Si1945   Si       0.48377    0.37276    0.31970    1.000
    Si1946   Si       0.41278    0.44285    0.29819    1.000
    N1947    N        0.29403    0.44782    0.30068    1.000
    N1948    N        0.34002    0.48648    0.33487    1.000
    Si1949   Si       0.30066    0.41648    0.33136    1.000
    Si1950   Si       0.33424    0.46577    0.29634    1.000
    N1951    N        0.42265    0.41287    0.32658    1.000
    N1952    N        0.43004    0.48020    0.30727    1.000
    N1953    N        0.28569    0.28948    0.38062    1.000
    Si1954   Si       0.32942    0.28666    0.37438    1.000
    N1955    N        0.32058    0.36144    0.39427    1.000
    Si1956   Si       0.34326    0.36081    0.35713    1.000
    N1957    N        0.38425    0.37003    0.36636    1.000
    Si1958   Si       0.44622    0.26365    0.38573    1.000
    N1959    N        0.48482    0.28397    0.37774    1.000
    N1960    N        0.29529    0.49219    0.39167    1.000
    Si1961   Si       0.30146    0.39976    0.38962    1.000
    N1962    N        0.27048    0.40248    0.36039    1.000
    Si1963   Si       0.33121    0.47116    0.37618    1.000
    N1964    N        0.32520    0.42905    0.36729    1.000
    N1965    N        0.42317    0.25499    0.34946    1.000
    Si1966   Si       0.45068    0.41830    0.36040    1.000
    N1967    N        0.43261    0.41102    0.39748    1.000
    N1968    N        0.46695    0.45917    0.36137    1.000
    N1969    N        0.36803    0.48347    0.39725    1.000
    N1970    N        0.48502    0.38979    0.36038    1.000
    N1971    N        0.29013    0.31567    0.44925    1.000
    Si1972   Si       0.32368    0.33268    0.42688    1.000
    Si1973   Si       0.26367    0.29636    0.42049    1.000
    N1974    N        0.34267    0.35872    0.45533    1.000
    N1975    N        0.34704    0.29753    0.41267    1.000
    N1976    N        0.25833    0.25910    0.44242    1.000
    Si1977   Si       0.43760    0.32327    0.43089    1.000
    N1978    N        0.40659    0.35419    0.43484    1.000
    Si1979   Si       0.38017    0.27899    0.43069    1.000
    N1980    N        0.41933    0.28774    0.41203    1.000
    N1981    N        0.42564    0.46105    0.44441    1.000
    Si1982   Si       0.38323    0.45873    0.42891    1.000
    Si1983   Si       0.33612    0.40168    0.44812    1.000
    Si1984   Si       0.27280    0.48418    0.42891    1.000
    N1985    N        0.29811    0.41107    0.43010    1.000
    Si1986   Si       0.25684    0.41739    0.44042    1.000
    N1987    N        0.24248    0.45540    0.42518    1.000
    N1988    N        0.36436    0.47285    0.46453    1.000
    N1989    N        0.37140    0.41494    0.42587    1.000
    Si1990   Si       0.45388    0.43100    0.43063    1.000
    N1991    N        0.29519    0.47213    0.46152    1.000
    N1992    N        0.45708    0.40606    0.46483    1.000
    Si1993   Si       0.39523    0.38606    0.40509    1.000
    N1994    N        0.47185    0.33893    0.40995    1.000
    Si1995   Si       0.28774    0.30546    0.49140    1.000
    N1996    N        0.30555    0.26582    0.49262    1.000
    N1997    N        0.24955    0.30396    0.51457    1.000
    N1998    N        0.30926    0.33621    0.51737    1.000
    Si1999   Si       0.45313    0.27241    0.48803    1.000
    N2000    N        0.38813    0.36171    0.50807    1.000
    Si2001   Si       0.38680    0.27067    0.50021    1.000
    N2002    N        0.44831    0.31202    0.47106    1.000
    N2003    N        0.37871    0.30021    0.46907    1.000
    Si2004   Si       0.38182    0.34327    0.46947    1.000
    Si2005   Si       0.29752    0.44111    0.48997    1.000
    N2006    N        0.33265    0.41605    0.49027    1.000
    N2007    N        0.26138    0.41830    0.48293    1.000
    Si2008   Si       0.36035    0.48719    0.50309    1.000
    N2009    N        0.24474    0.50271    0.51587    1.000
    Si2010   Si       0.36777    0.40133    0.51220    1.000
    Si2011   Si       0.47774    0.42171    0.49994    1.000
    N2012    N        0.40253    0.49943    0.50623    1.000
    N2013    N        0.39904    0.43158    0.50750    1.000
    Si2014   Si       0.42161    0.46550    0.48684    1.000
    N2015    N        0.46055    0.46121    0.50801    1.000
    Si2016   Si       0.32220    0.32127    0.55712    1.000
    N2017    N        0.32115    0.27839    0.56687    1.000
    Si2018   Si       0.28780    0.36837    0.53699    1.000
    N2019    N        0.28687    0.33934    0.57716    1.000
    N2020    N        0.24455    0.37163    0.53231    1.000
    N2021    N        0.35848    0.34366    0.56865    1.000
    Si2022   Si       0.42205    0.26588    0.55927    1.000
    N2023    N        0.43270    0.34695    0.56343    1.000
    Si2024   Si       0.39502    0.33603    0.54378    1.000
    N2025    N        0.39603    0.29243    0.53618    1.000
    N2026    N        0.45794    0.26645    0.53167    1.000
    Si2027   Si       0.45729    0.38385    0.56240    1.000
    N2028    N        0.30192    0.40179    0.56047    1.000
    Si2029   Si       0.32587    0.43802    0.55741    1.000
    N2030    N        0.35931    0.47028    0.54282    1.000
    N2031    N        0.29877    0.45772    0.52942    1.000
    Si2032   Si       0.28757    0.49787    0.52709    1.000
    Si2033   Si       0.48011    0.48096    0.54017    1.000
    Si2034   Si       0.39474    0.44176    0.55077    1.000
    N2035    N        0.36400    0.40974    0.55623    1.000
    N2036    N        0.43156    0.41982    0.56503    1.000
    N2037    N        0.27858    0.28356    0.62083    1.000
    Si2038   Si       0.26202    0.32286    0.61065    1.000
    Si2039   Si       0.31441    0.26569    0.60804    1.000
    N2040    N        0.28045    0.35519    0.63478    1.000
    N2041    N        0.34917    0.26053    0.63198    1.000
    Si2042   Si       0.36134    0.38000    0.58975    1.000
    N2043    N        0.47307    0.46940    0.58353    1.000
    N2044    N        0.43242    0.28391    0.59709    1.000
    Si2045   Si       0.45111    0.32447    0.59556    1.000
    N2046    N        0.45035    0.34211    0.63454    1.000
    Si2047   Si       0.42944    0.26393    0.63455    1.000
    Si2048   Si       0.28767    0.38208    0.59911    1.000
    Si2049   Si       0.29162    0.48563    0.60415    1.000
    N2050    N        0.32777    0.39158    0.61812    1.000
    N2051    N        0.25562    0.40912    0.61121    1.000
    N2052    N        0.24899    0.47042    0.60936    1.000
    N2053    N        0.32844    0.46062    0.59703    1.000
    Si2054   Si       0.33486    0.43392    0.63166    1.000
    N2055    N        0.44107    0.42987    0.63570    1.000
    N2056    N        0.39383    0.38658    0.61683    1.000
    N2057    N        0.40081    0.46810    0.58918    1.000
    Si2058   Si       0.46294    0.38390    0.63432    1.000
    Si2059   Si       0.43715    0.44774    0.59714    1.000
    N2060    N        0.48444    0.37891    0.59614    1.000
    Si2061   Si       0.48853    0.49966    0.61144    1.000
    Si2062   Si       0.25981    0.43760    0.64465    1.000
    Si2063   Si       0.36150    0.48543    0.58381    1.000
    Si2064   Si       0.32221    0.35961    0.64834    1.000
    Si2065   Si       0.24685    0.36852    0.65911    1.000
    N2066    N        0.34865    0.27839    0.69966    1.000
    N2067    N        0.24981    0.34719    0.69790    1.000
    N2068    N        0.32451    0.37733    0.68801    1.000
    N2069    N        0.34589    0.32545    0.64333    1.000
    Si2070   Si       0.36401    0.29102    0.65964    1.000
    N2071    N        0.40663    0.29135    0.65906    1.000
    Si2072   Si       0.44385    0.31313    0.66590    1.000
    N2073    N        0.46647    0.27574    0.65646    1.000
    N2074    N        0.34618    0.49480    0.67521    1.000
    N2075    N        0.26128    0.40832    0.67901    1.000
    Si2076   Si       0.30662    0.47490    0.68507    1.000
    N2077    N        0.30055    0.44824    0.65139    1.000
    N2078    N        0.37061    0.43473    0.66187    1.000
    Si2079   Si       0.45283    0.46180    0.66477    1.000
    N2080    N        0.41757    0.48453    0.67639    1.000
    Si2081   Si       0.40367    0.40921    0.65232    1.000
    N2082    N        0.42834    0.39110    0.68603    1.000
    Si2083   Si       0.37852    0.46932    0.68785    1.000
    Si2084   Si       0.47021    0.40228    0.69831    1.000
    N2085    N        0.27415    0.49745    0.70346    1.000
    Si2086   Si       0.25708    0.36203    0.73732    1.000
    Si2087   Si       0.27037    0.28705    0.74514    1.000
    Si2088   Si       0.35095    0.36525    0.71916    1.000
    N2089    N        0.33750    0.33215    0.74744    1.000
    N2090    N        0.30566    0.26161    0.75151    1.000
    N2091    N        0.25377    0.27944    0.70617    1.000
    N2092    N        0.27167    0.32926    0.75784    1.000
    Si2093   Si       0.36823    0.30565    0.72838    1.000
    Si2094   Si       0.42299    0.35911    0.71661    1.000
    N2095    N        0.39551    0.27914    0.75110    1.000
    N2096    N        0.38484    0.34088    0.70879    1.000
    N2097    N        0.42029    0.37376    0.75699    1.000
    N2098    N        0.45537    0.32994    0.70479    1.000
    N2099    N        0.48144    0.38154    0.73605    1.000
    N2100    N        0.31851    0.44440    0.71354    1.000
    Si2101   Si       0.35022    0.43943    0.74598    1.000
    N2102    N        0.28554    0.39478    0.74046    1.000
    N2103    N        0.35752    0.39713    0.74391    1.000
    Si2104   Si       0.38653    0.50191    0.75826    1.000
    N2105    N        0.37774    0.46783    0.73255    1.000
    N2106    N        0.46319    0.44536    0.70351    1.000
    N2107    N        0.46887    0.50419    0.73881    1.000
    Si2108   Si       0.47626    0.46120    0.74223    1.000
    Si2109   Si       0.29750    0.40888    0.70231    1.000
    Si2110   Si       0.30906    0.33780    0.77840    1.000
    N2111    N        0.31677    0.31125    0.80999    1.000
    N2112    N        0.30999    0.37637    0.79546    1.000
    N2113    N        0.38918    0.42885    0.79096    1.000
    Si2114   Si       0.41640    0.27513    0.79159    1.000
    N2115    N        0.46524    0.37603    0.80757    1.000
    N2116    N        0.37539    0.36572    0.81368    1.000
    N2117    N        0.45187    0.26025    0.77000    1.000
    Si2118   Si       0.35543    0.44598    0.81390    1.000
    N2119    N        0.32579    0.45084    0.78228    1.000
    Si2120   Si       0.31210    0.49319    0.78865    1.000
    Si2121   Si       0.29689    0.41353    0.77904    1.000
    N2122    N        0.26017    0.42731    0.79587    1.000
    Si2123   Si       0.45681    0.39337    0.76876    1.000
    N2124    N        0.41796    0.49294    0.78911    1.000
    Si2125   Si       0.38432    0.38939    0.77712    1.000
    N2126    N        0.45413    0.43706    0.77175    1.000
    Si2127   Si       0.42566    0.45022    0.80100    1.000
    Si2128   Si       0.29251    0.29297    0.83837    1.000
    N2129    N        0.32717    0.35238    0.86204    1.000
    N2130    N        0.25174    0.30941    0.83699    1.000
    Si2131   Si       0.24545    0.34541    0.86219    1.000
    Si2132   Si       0.33607    0.37702    0.82910    1.000
    Si2133   Si       0.44264    0.46344    0.87433    1.000
    N2134    N        0.44647    0.27813    0.86619    1.000
    N2135    N        0.42613    0.36771    0.86299    1.000
    Si2136   Si       0.40318    0.28450    0.86249    1.000
    Si2137   Si       0.39790    0.34376    0.84268    1.000
    N2138    N        0.38429    0.32001    0.87817    1.000
    N2139    N        0.25355    0.38332    0.84764    1.000
    Si2140   Si       0.45531    0.39497    0.84578    1.000
    Si2141   Si       0.27707    0.49553    0.85591    1.000
    Si2142   Si       0.25090    0.42465    0.83810    1.000
    N2143    N        0.27867    0.45262    0.85857    1.000
    N2144    N        0.33530    0.41868    0.84023    1.000
    Si2145   Si       0.31309    0.43316    0.87373    1.000
    N2146    N        0.40751    0.30508    0.82159    1.000
    N2147    N        0.44122    0.50239    0.85240    1.000
    N2148    N        0.37637    0.47659    0.83851    1.000
    N2149    N        0.44191    0.43568    0.84025    1.000
    N2150    N        0.23835    0.50375    0.83658    1.000
    N2151    N        0.31292    0.28953    0.87847    1.000
    N2152    N        0.26727    0.34406    0.90095    1.000
    N2153    N        0.33043    0.34000    0.92275    1.000
    Si2154   Si       0.29187    0.26647    0.90974    1.000
    Si2155   Si       0.30461    0.36423    0.89796    1.000
    Si2156   Si       0.34152    0.31852    0.88643    1.000
    N2157    N        0.46147    0.32970    0.91107    1.000
    Si2158   Si       0.42861    0.36209    0.90554    1.000
    Si2159   Si       0.47950    0.30285    0.88343    1.000
    N2160    N        0.34106    0.45627    0.89703    1.000
    N2161    N        0.30151    0.40582    0.90540    1.000
    N2162    N        0.44090    0.40142    0.91715    1.000
    N2163    N        0.41115    0.46315    0.90444    1.000
    Si2164   Si       0.41443    0.43156    0.93391    1.000
    Si2165   Si       0.48054    0.41213    0.90922    1.000
    N2166    N        0.47912    0.45441    0.89819    1.000
    Si2167   Si       0.37532    0.47594    0.88094    1.000
    Si2168   Si       0.39496    0.49900    0.93443    1.000
    Si2169   Si       0.32541    0.33872    0.96489    1.000
    N2170    N        0.28456    0.35134    0.97227    1.000
    Si2171   Si       0.28648    0.28185    0.98013    1.000
    N2172    N        0.32420    0.29945    0.98074    1.000
    N2173    N        0.35468    0.36089    0.98574    1.000
    Si2174   Si       0.25427    0.35557    0.94221    1.000
    N2175    N        0.26862    0.28472    0.94037    1.000
    Si2176   Si       0.45055    0.32891    0.95678    1.000
    N2177    N        0.45133    0.28623    0.96523    1.000
    N2178    N        0.41105    0.34954    0.94323    1.000
    Si2179   Si       0.38799    0.37818    0.96561    1.000
    Si2180   Si       0.28149    0.50631    0.93620    1.000
    Si2181   Si       0.34759    0.43939    0.93746    1.000
    N2182    N        0.24394    0.39828    0.94307    1.000
    N2183    N        0.26405    0.46754    0.94439    1.000
    N2184    N        0.31371    0.42874    0.96313    1.000
    Si2185   Si       0.34207    0.49912    0.98489    1.000
    Si2186   Si       0.24291    0.46045    0.98085    1.000
    Si2187   Si       0.27848    0.42600    0.93746    1.000
    N2188    N        0.37762    0.41079    0.93987    1.000
    N2189    N        0.42804    0.45578    0.96835    1.000
    N2190    N        0.36631    0.47567    0.95650    1.000
    Si2191   Si       0.44900    0.49320    0.97481    1.000
    Si2192   Si       0.48389    0.25854    0.95791    1.000
    Si2193   Si       0.31335    0.60632    0.01947    1.000
    N2194    N        0.35571    0.59805    0.02805    1.000
    N2195    N        0.25244    0.54502    0.04916    1.000
    N2196    N        0.36974    0.52670    0.00277    1.000
    Si2197   Si       0.43298    0.60269    0.02265    1.000
    N2198    N        0.45996    0.57636    0.04194    1.000
    Si2199   Si       0.47141    0.54169    0.01776    1.000
    N2200    N        0.41318    0.62568    0.05342    1.000
    N2201    N        0.33916    0.71189    0.03999    1.000
    N2202    N        0.31391    0.64917    0.01109    1.000
    Si2203   Si       0.32325    0.67191    0.04760    1.000
    N2204    N        0.45896    0.63352    0.00196    1.000
    N2205    N        0.47576    0.70063    0.01988    1.000
    Si2206   Si       0.48587    0.65861    0.02389    1.000
    N2207    N        0.40842    0.70965    0.02524    1.000
    Si2208   Si       0.36934    0.71596    0.00839    1.000
    Si2209   Si       0.43993    0.71169    0.99628    1.000
    Si2210   Si       0.28753    0.56010    0.06544    1.000
    N2211    N        0.32214    0.53430    0.05964    1.000
    Si2212   Si       0.35847    0.54117    0.08271    1.000
    N2213    N        0.28330    0.55717    0.10806    1.000
    N2214    N        0.44531    0.75357    0.06842    1.000
    N2215    N        0.29069    0.60237    0.05591    1.000
    Si2216   Si       0.42361    0.51100    0.10009    1.000
    N2217    N        0.39384    0.51944    0.06956    1.000
    N2218    N        0.37286    0.58288    0.09081    1.000
    Si2219   Si       0.37270    0.61611    0.06365    1.000
    Si2220   Si       0.26410    0.63609    0.06918    1.000
    N2221    N        0.33018    0.70739    0.10391    1.000
    Si2222   Si       0.34532    0.73502    0.07555    1.000
    N2223    N        0.27005    0.74256    0.09052    1.000
    N2224    N        0.28597    0.67149    0.06968    1.000
    Si2225   Si       0.28607    0.70222    0.10070    1.000
    N2226    N        0.35287    0.65214    0.07485    1.000
    Si2227   Si       0.24142    0.75259    0.05719    1.000
    N2228    N        0.43455    0.68543    0.09089    1.000
    Si2229   Si       0.42063    0.71740    0.06487    1.000
    N2230    N        0.38685    0.74022    0.08058    1.000
    Si2231   Si       0.44059    0.64298    0.08227    1.000
    N2232    N        0.47775    0.63809    0.06112    1.000
    N2233    N        0.25689    0.62299    0.10999    1.000
    Si2234   Si       0.30412    0.52798    0.13358    1.000
    N2235    N        0.34573    0.52366    0.12171    1.000
    Si2236   Si       0.24538    0.58013    0.11569    1.000
    Si2237   Si       0.35138    0.61401    0.17304    1.000
    Si2238   Si       0.35509    0.67321    0.11504    1.000
    Si2239   Si       0.46739    0.56470    0.13162    1.000
    N2240    N        0.38072    0.58359    0.16116    1.000
    Si2241   Si       0.40115    0.58573    0.12249    1.000
    N2242    N        0.46723    0.59059    0.16598    1.000
    N2243    N        0.42723    0.55003    0.11954    1.000
    N2244    N        0.43007    0.62114    0.11934    1.000
    Si2245   Si       0.46318    0.63016    0.15005    1.000
    N2246    N        0.33909    0.64744    0.14669    1.000
    N2247    N        0.27537    0.68469    0.13874    1.000
    Si2248   Si       0.30810    0.67306    0.16526    1.000
    Si2249   Si       0.24180    0.66030    0.12794    1.000
    N2250    N        0.45214    0.72815    0.14151    1.000
    Si2251   Si       0.42846    0.69239    0.13179    1.000
    N2252    N        0.38578    0.69345    0.13893    1.000
    N2253    N        0.44383    0.66552    0.16655    1.000
    Si2254   Si       0.37258    0.71614    0.17630    1.000
    N2255    N        0.37197    0.75649    0.16230    1.000
    N2256    N        0.23828    0.56547    0.15435    1.000
    Si2257   Si       0.31613    0.55349    0.20816    1.000
    N2258    N        0.31614    0.59282    0.19125    1.000
    Si2259   Si       0.29242    0.61849    0.21499    1.000
    N2260    N        0.30286    0.52614    0.17787    1.000
    N2261    N        0.24782    0.61156    0.22516    1.000
    N2262    N        0.35581    0.55590    0.22971    1.000
    Si2263   Si       0.48151    0.73774    0.17446    1.000
    N2264    N        0.37054    0.62625    0.21073    1.000
    Si2265   Si       0.46462    0.57706    0.20615    1.000
    N2266    N        0.42399    0.56228    0.21126    1.000
    Si2267   Si       0.38470    0.55543    0.19520    1.000
    N2268    N        0.38046    0.51289    0.18361    1.000
    Si2269   Si       0.24004    0.64937    0.20192    1.000
    Si2270   Si       0.31697    0.71869    0.22206    1.000
    N2271    N        0.28264    0.74337    0.20926    1.000
    N2272    N        0.33318    0.70283    0.18503    1.000
    N2273    N        0.28292    0.65154    0.19079    1.000
    Si2274   Si       0.43787    0.68538    0.20224    1.000
    N2275    N        0.40025    0.70797    0.20707    1.000
    N2276    N        0.47330    0.70972    0.20720    1.000
    N2277    N        0.31746    0.62241    0.25027    1.000
    Si2278   Si       0.29486    0.52514    0.27460    1.000
    Si2279   Si       0.25282    0.57530    0.25006    1.000
    N2280    N        0.29045    0.55484    0.24310    1.000
    Si2281   Si       0.35409    0.59926    0.24151    1.000
    Si2282   Si       0.36345    0.52884    0.26242    1.000
    N2283    N        0.38739    0.60987    0.26807    1.000
    N2284    N        0.48092    0.60588    0.23449    1.000
    N2285    N        0.43452    0.65619    0.23439    1.000
    N2286    N        0.30140    0.68965    0.24944    1.000
    Si2287   Si       0.25990    0.69152    0.26326    1.000
    N2288    N        0.25799    0.73195    0.27721    1.000
    Si2289   Si       0.32919    0.66216    0.26768    1.000
    N2290    N        0.34903    0.74017    0.23947    1.000
    Si2291   Si       0.38362    0.71619    0.24730    1.000
    Si2292   Si       0.39318    0.64611    0.24234    1.000
    Si2293   Si       0.46863    0.64171    0.25656    1.000
    N2294    N        0.36914    0.67621    0.26052    1.000
    N2295    N        0.40980    0.74136    0.27126    1.000
    N2296    N        0.48330    0.74601    0.26800    1.000
    N2297    N        0.30160    0.54029    0.31485    1.000
    Si2298   Si       0.34002    0.52930    0.33288    1.000
    Si2299   Si       0.26617    0.56356    0.32495    1.000
    N2300    N        0.27809    0.60355    0.33449    1.000
    N2301    N        0.24294    0.56341    0.29021    1.000
    Si2302   Si       0.47803    0.62533    0.32893    1.000
    N2303    N        0.37091    0.54161    0.30454    1.000
    Si2304   Si       0.40829    0.54906    0.32539    1.000
    N2305    N        0.40989    0.58966    0.33868    1.000
    Si2306   Si       0.41198    0.61393    0.30205    1.000
    Si2307   Si       0.48115    0.55332    0.30485    1.000
    N2308    N        0.45277    0.62648    0.29346    1.000
    N2309    N        0.43984    0.54449    0.29542    1.000
    Si2310   Si       0.39903    0.73759    0.31654    1.000
    Si2311   Si       0.24259    0.74266    0.31509    1.000
    Si2312   Si       0.28326    0.64479    0.32166    1.000
    N2313    N        0.32304    0.65630    0.30907    1.000
    N2314    N        0.25457    0.65840    0.29264    1.000
    Si2315   Si       0.35911    0.67220    0.32871    1.000
    N2316    N        0.36378    0.71351    0.31706    1.000
    N2317    N        0.39361    0.64688    0.32789    1.000
    Si2318   Si       0.46068    0.74314    0.34353    1.000
    N2319    N        0.42987    0.71556    0.33719    1.000
    N2320    N        0.33318    0.62041    0.37782    1.000
    Si2321   Si       0.27641    0.53357    0.38843    1.000
    Si2322   Si       0.28886    0.61747    0.37479    1.000
    Si2323   Si       0.33544    0.57921    0.39248    1.000
    N2324    N        0.29177    0.57391    0.39210    1.000
    N2325    N        0.24785    0.53944    0.35713    1.000
    N2326    N        0.35365    0.54565    0.37202    1.000
    Si2327   Si       0.38734    0.52190    0.39002    1.000
    N2328    N        0.41876    0.51948    0.35931    1.000
    Si2329   Si       0.41144    0.62511    0.36144    1.000
    N2330    N        0.45374    0.63390    0.36389    1.000
    N2331    N        0.27831    0.65882    0.36433    1.000
    Si2332   Si       0.27396    0.70045    0.37154    1.000
    N2333    N        0.30694    0.72982    0.36623    1.000
    Si2334   Si       0.34837    0.72634    0.35762    1.000
    Si2335   Si       0.35565    0.65060    0.39822    1.000
    N2336    N        0.35456    0.68601    0.37265    1.000
    N2337    N        0.38004    0.75853    0.35568    1.000
    N2338    N        0.39600    0.63585    0.40028    1.000
    Si2339   Si       0.47546    0.65286    0.39479    1.000
    N2340    N        0.48305    0.69578    0.38849    1.000
    N2341    N        0.24028    0.71323    0.34685    1.000
    N2342    N        0.34205    0.58396    0.43548    1.000
    N2343    N        0.25717    0.52366    0.42703    1.000
    Si2344   Si       0.31977    0.61572    0.45322    1.000
    N2345    N        0.28063    0.62911    0.44234    1.000
    N2346    N        0.39310    0.54160    0.42884    1.000
    Si2347   Si       0.37913    0.57164    0.45581    1.000
    N2348    N        0.40582    0.60641    0.46081    1.000
    N2349    N        0.34443    0.64999    0.44043    1.000
    Si2350   Si       0.29812    0.72166    0.43780    1.000
    N2351    N        0.34387    0.72487    0.44175    1.000
    N2352    N        0.26526    0.70666    0.41389    1.000
    Si2353   Si       0.35719    0.68654    0.46028    1.000
    N2354    N        0.42265    0.72298    0.41310    1.000
    N2355    N        0.45970    0.64505    0.43455    1.000
    Si2356   Si       0.41621    0.64386    0.43884    1.000
    N2357    N        0.46636    0.71598    0.45874    1.000
    N2358    N        0.40336    0.67825    0.45939    1.000
    Si2359   Si       0.46791    0.72844    0.41389    1.000
    Si2360   Si       0.42250    0.71616    0.45724    1.000
    Si2361   Si       0.48872    0.63462    0.46433    1.000
    N2362    N        0.31633    0.59730    0.49468    1.000
    N2363    N        0.32339    0.51691    0.50814    1.000
    Si2364   Si       0.27288    0.59329    0.50084    1.000
    Si2365   Si       0.33383    0.56025    0.51299    1.000
    N2366    N        0.24647    0.57364    0.47428    1.000
    N2367    N        0.25702    0.63484    0.50546    1.000
    N2368    N        0.37217    0.55720    0.49724    1.000
    N2369    N        0.43946    0.56698    0.50569    1.000
    Si2370   Si       0.42610    0.60800    0.49825    1.000
    Si2371   Si       0.40692    0.54074    0.51670    1.000
    N2372    N        0.46693    0.62598    0.50089    1.000
    N2373    N        0.35204    0.68228    0.50328    1.000
    N2374    N        0.29085    0.69353    0.47157    1.000
    Si2375   Si       0.31425    0.70226    0.50761    1.000
    N2376    N        0.31264    0.74640    0.50907    1.000
    N2377    N        0.39913    0.74584    0.47538    1.000
    N2378    N        0.46529    0.68978    0.52237    1.000
    Si2379   Si       0.26318    0.65931    0.46990    1.000
    N2380    N        0.33329    0.56607    0.55595    1.000
    Si2381   Si       0.29295    0.55446    0.56816    1.000
    N2382    N        0.27016    0.56421    0.53401    1.000
    N2383    N        0.29084    0.50971    0.56780    1.000
    N2384    N        0.40137    0.54670    0.55971    1.000
    N2385    N        0.46289    0.52044    0.54303    1.000
    N2386    N        0.46126    0.58027    0.56504    1.000
    Si2387   Si       0.44125    0.54115    0.57419    1.000
    Si2388   Si       0.47501    0.56068    0.52918    1.000
    Si2389   Si       0.36560    0.56116    0.58135    1.000
    Si2390   Si       0.26231    0.69941    0.56473    1.000
    N2391    N        0.26165    0.74161    0.55758    1.000
    N2392    N        0.29461    0.68244    0.54113    1.000
    N2393    N        0.32701    0.73155    0.57391    1.000
    Si2394   Si       0.31299    0.66497    0.57648    1.000
    N2395    N        0.35493    0.65380    0.56997    1.000
    Si2396   Si       0.30188    0.75662    0.54980    1.000
    Si2397   Si       0.37863    0.66561    0.53434    1.000
    N2398    N        0.44337    0.74995    0.52541    1.000
    Si2399   Si       0.43812    0.71274    0.54628    1.000
    Si2400   Si       0.36985    0.73058    0.56512    1.000
    N2401    N        0.39594    0.70374    0.54551    1.000
    Si2402   Si       0.45417    0.64909    0.53311    1.000
    N2403    N        0.46907    0.64305    0.57264    1.000
    N2404    N        0.41230    0.63826    0.52489    1.000
    N2405    N        0.27159    0.57069    0.60311    1.000
    Si2406   Si       0.25618    0.61047    0.59748    1.000
    N2407    N        0.29755    0.51492    0.63477    1.000
    N2408    N        0.35846    0.52421    0.60487    1.000
    Si2409   Si       0.26677    0.54737    0.63839    1.000
    N2410    N        0.29087    0.62965    0.58786    1.000
    N2411    N        0.37095    0.59551    0.60672    1.000
    N2412    N        0.45832    0.53138    0.61315    1.000
    Si2413   Si       0.46713    0.60727    0.59906    1.000
    N2414    N        0.44191    0.60184    0.63346    1.000
    N2415    N        0.24496    0.63656    0.63038    1.000
    N2416    N        0.33282    0.65035    0.63457    1.000
    N2417    N        0.28524    0.69108    0.60265    1.000
    Si2418   Si       0.30392    0.72927    0.61104    1.000
    Si2419   Si       0.28720    0.65532    0.63066    1.000
    N2420    N        0.32908    0.72549    0.64400    1.000
    Si2421   Si       0.36377    0.74932    0.64091    1.000
    Si2422   Si       0.48237    0.67887    0.59332    1.000
    N2423    N        0.44899    0.70704    0.58730    1.000
    N2424    N        0.40572    0.66055    0.62084    1.000
    Si2425   Si       0.36800    0.63849    0.60910    1.000
    N2426    N        0.38410    0.72712    0.60673    1.000
    Si2427   Si       0.41718    0.70430    0.61745    1.000
    N2428    N        0.48523    0.66256    0.63205    1.000
    N2429    N        0.27359    0.57341    0.67459    1.000
    N2430    N        0.34149    0.56388    0.66175    1.000
    Si2431   Si       0.31334    0.57557    0.69204    1.000
    N2432    N        0.31780    0.61798    0.69754    1.000
    Si2433   Si       0.33914    0.52362    0.64419    1.000
    Si2434   Si       0.24185    0.58516    0.70090    1.000
    N2435    N        0.38317    0.61939    0.66677    1.000
    N2436    N        0.46122    0.54214    0.68524    1.000
    N2437    N        0.40847    0.55026    0.65589    1.000
    Si2438   Si       0.42011    0.52757    0.69097    1.000
    Si2439   Si       0.37745    0.58025    0.64778    1.000
    Si2440   Si       0.45047    0.55925    0.64601    1.000
    N2441    N        0.35367    0.67780    0.69305    1.000
    Si2442   Si       0.32006    0.70105    0.67692    1.000
    N2443    N        0.28701    0.67258    0.67175    1.000
    Si2444   Si       0.34639    0.64005    0.67495    1.000
    Si2445   Si       0.42170    0.63420    0.65063    1.000
    N2446    N        0.48157    0.70398    0.68931    1.000
    N2447    N        0.42400    0.72112    0.65637    1.000
    Si2448   Si       0.48370    0.66395    0.67577    1.000
    N2449    N        0.44371    0.64606    0.68653    1.000
    Si2450   Si       0.44195    0.72019    0.69439    1.000
    N2451    N        0.31346    0.55390    0.72819    1.000
    Si2452   Si       0.27797    0.52926    0.73348    1.000
    N2453    N        0.24874    0.62340    0.71954    1.000
    N2454    N        0.24271    0.55329    0.73081    1.000
    N2455    N        0.40343    0.53352    0.73068    1.000
    N2456    N        0.43996    0.60001    0.73927    1.000
    Si2457   Si       0.40886    0.57132    0.74911    1.000
    N2458    N        0.36925    0.58503    0.75970    1.000
    Si2459   Si       0.30561    0.71057    0.74261    1.000
    N2460    N        0.29505    0.66990    0.74116    1.000
    Si2461   Si       0.28402    0.64515    0.70530    1.000
    N2462    N        0.34777    0.70894    0.75458    1.000
    Si2463   Si       0.37653    0.68567    0.72926    1.000
    Si2464   Si       0.41928    0.74619    0.74787    1.000
    N2465    N        0.39304    0.64828    0.74631    1.000
    Si2466   Si       0.43275    0.64296    0.72885    1.000
    N2467    N        0.41224    0.71005    0.72224    1.000
    N2468    N        0.46369    0.66704    0.74900    1.000
    N2469    N        0.30756    0.73154    0.70570    1.000
    N2470    N        0.31827    0.57156    0.80103    1.000
    N2471    N        0.34769    0.51815    0.77774    1.000
    Si2472   Si       0.24192    0.52640    0.80017    1.000
    Si2473   Si       0.28384    0.59321    0.81265    1.000
    N2474    N        0.27188    0.62679    0.78604    1.000
    Si2475   Si       0.33705    0.55753    0.76439    1.000
    N2476    N        0.24882    0.56769    0.81220    1.000
    N2477    N        0.27299    0.51024    0.77312    1.000
    Si2478   Si       0.37952    0.62381    0.78006    1.000
    Si2479   Si       0.45520    0.51597    0.77811    1.000
    N2480    N        0.43799    0.55604    0.78351    1.000
    N2481    N        0.40845    0.60977    0.80826    1.000
    N2482    N        0.43550    0.72421    0.78233    1.000
    Si2483   Si       0.46968    0.58431    0.76794    1.000
    Si2484   Si       0.47256    0.70584    0.76867    1.000
    N2485    N        0.27905    0.73499    0.76485    1.000
    Si2486   Si       0.30330    0.65531    0.78150    1.000
    Si2487   Si       0.28808    0.73818    0.80809    1.000
    N2488    N        0.30374    0.69162    0.80826    1.000
    N2489    N        0.34452    0.64433    0.79537    1.000
    Si2490   Si       0.35996    0.73423    0.78606    1.000
    Si2491   Si       0.23751    0.63408    0.76151    1.000
    N2492    N        0.37830    0.70328    0.81259    1.000
    N2493    N        0.48906    0.51641    0.80423    1.000
    Si2494   Si       0.42239    0.57335    0.82274    1.000
    N2495    N        0.28369    0.60603    0.85512    1.000
    N2496    N        0.33668    0.56392    0.86470    1.000
    Si2497   Si       0.34038    0.54305    0.82551    1.000
    Si2498   Si       0.25135    0.62789    0.87463    1.000
    N2499    N        0.31193    0.50706    0.83054    1.000
    N2500    N        0.45732    0.56831    0.84874    1.000
    N2501    N        0.39116    0.54547    0.83639    1.000
    Si2502   Si       0.47615    0.52798    0.84725    1.000
    Si2503   Si       0.48267    0.59603    0.87022    1.000
    Si2504   Si       0.45997    0.67194    0.87245    1.000
    Si2505   Si       0.40622    0.50549    0.82902    1.000
    N2506    N        0.32941    0.68008    0.86271    1.000
    Si2507   Si       0.29007    0.69311    0.85114    1.000
    N2508    N        0.27572    0.73213    0.85148    1.000
    N2509    N        0.25830    0.66886    0.86390    1.000
    Si2510   Si       0.34508    0.67819    0.82203    1.000
    N2511    N        0.44240    0.68237    0.83551    1.000
    N2512    N        0.41157    0.74225    0.85387    1.000
    Si2513   Si       0.41855    0.71523    0.82106    1.000
    Si2514   Si       0.37873    0.55480    0.87855    1.000
    N2515    N        0.29479    0.57829    0.91793    1.000
    Si2516   Si       0.25026    0.57791    0.92311    1.000
    Si2517   Si       0.31460    0.59601    0.88354    1.000
    N2518    N        0.33989    0.62620    0.90129    1.000
    N2519    N        0.26960    0.51160    0.89462    1.000
    N2520    N        0.24290    0.62081    0.91742    1.000
    Si2521   Si       0.36906    0.60526    0.92802    1.000
    N2522    N        0.37881    0.51611    0.89598    1.000
    Si2523   Si       0.42612    0.61636    0.90679    1.000
    N2524    N        0.39609    0.58469    0.90121    1.000
    N2525    N        0.45515    0.62970    0.88034    1.000
    Si2526   Si       0.34061    0.67060    0.90151    1.000
    N2527    N        0.27960    0.74545    0.92243    1.000
    N2528    N        0.30998    0.67923    0.93070    1.000
    Si2529   Si       0.27537    0.70353    0.93457    1.000
    N2530    N        0.39717    0.63729    0.93095    1.000
    N2531    N        0.37406    0.69720    0.91045    1.000
    N2532    N        0.43929    0.69851    0.90234    1.000
    Si2533   Si       0.40448    0.72332    0.89469    1.000
    Si2534   Si       0.47714    0.70157    0.92350    1.000
    Si2535   Si       0.31261    0.56432    0.95553    1.000
    N2536    N        0.31522    0.51961    0.95671    1.000
    N2537    N        0.35313    0.57710    0.95713    1.000
    N2538    N        0.25001    0.53804    0.94479    1.000
    N2539    N        0.29641    0.58148    0.99080    1.000
    Si2540   Si       0.43355    0.56486    0.95976    1.000
    N2541    N        0.42643    0.52204    0.95176    1.000
    N2542    N        0.47515    0.55655    0.97630    1.000
    N2543    N        0.45027    0.60434    0.94351    1.000
    N2544    N        0.41104    0.57855    0.99470    1.000
    N2545    N        0.36447    0.75626    0.99022    1.000
    N2546    N        0.42644    0.68232    0.96881    1.000
    N2547    N        0.27988    0.70125    0.97794    1.000
    Si2548   Si       0.31694    0.67770    0.97486    1.000
    Si2549   Si       0.23845    0.70984    0.99215    1.000
    N2550    N        0.35788    0.68865    0.97554    1.000
    N2551    N        0.48466    0.66804    0.94947    1.000
    Si2552   Si       0.45091    0.64512    0.96245    1.000
    Si2553   Si       0.38914    0.67739    0.94815    1.000
    N2554    N        0.43646    0.75067    0.97896    1.000
    Si2555   Si       0.36595    0.56753    0.99798    1.000
    N2556    N        0.32429    0.80862    0.01901    1.000
    Si2557   Si       0.27873    0.80871    0.01568    1.000
    N2558    N        0.27139    0.85005    0.00704    1.000
    Si2559   Si       0.25523    0.87410    0.03988    1.000
    N2560    N        0.24956    0.79124    0.04433    1.000
    Si2561   Si       0.40085    0.84169    0.03209    1.000
    N2562    N        0.44001    0.84160    0.00973    1.000
    Si2563   Si       0.46881    0.87367    0.01712    1.000
    N2564    N        0.37804    0.85720    0.99904    1.000
    N2565    N        0.38696    0.80420    0.04938    1.000
    N2566    N        0.25738    0.91147    0.01440    1.000
    N2567    N        0.32122    0.90169    0.00463    1.000
    Si2568   Si       0.28273    0.98767    0.04583    1.000
    Si2569   Si       0.31323    0.90984    0.04739    1.000
    N2570    N        0.24277    0.97940    0.03457    1.000
    Si2571   Si       0.34989    0.00198    0.01692    1.000
    N2572    N        0.30871    0.00446    0.01362    1.000
    Si2573   Si       0.24039    0.94836    0.00299    1.000
    N2574    N        0.42875    0.00458    0.05234    1.000
    N2575    N        0.36529    0.97278    0.04697    1.000
    N2576    N        0.45367    0.90641    0.04017    1.000
    N2577    N        0.41916    0.95328    0.00415    1.000
    Si2578   Si       0.46039    0.93400    0.00160    1.000
    Si2579   Si       0.40868    0.96697    0.04352    1.000
    Si2580   Si       0.47082    0.00155    0.04064    1.000
    N2581    N        0.33876    0.84380    0.07947    1.000
    N2582    N        0.32644    0.77521    0.08016    1.000
    Si2583   Si       0.30014    0.85220    0.09724    1.000
    N2584    N        0.27256    0.81839    0.09898    1.000
    Si2585   Si       0.29207    0.77731    0.10359    1.000
    Si2586   Si       0.34509    0.80636    0.05740    1.000
    Si2587   Si       0.40915    0.77933    0.07611    1.000
    N2588    N        0.40326    0.87014    0.06318    1.000
    Si2589   Si       0.36707    0.87569    0.08607    1.000
    N2590    N        0.41395    0.94372    0.08069    1.000
    N2591    N        0.30062    0.95129    0.06347    1.000
    Si2592   Si       0.27825    0.92870    0.09341    1.000
    N2593    N        0.34787    0.91198    0.07103    1.000
    N2594    N        0.28476    0.88759    0.07125    1.000
    Si2595   Si       0.34126    0.95411    0.07877    1.000
    N2596    N        0.24880    0.96280    0.10028    1.000
    Si2597   Si       0.27156    0.99937    0.11285    1.000
    N2598    N        0.35818    0.97313    0.11367    1.000
    Si2599   Si       0.42775    0.90407    0.07499    1.000
    N2600    N        0.44911    0.89682    0.11244    1.000
    Si2601   Si       0.45624    0.76215    0.11152    1.000
    N2602    N        0.31080    0.86418    0.13815    1.000
    Si2603   Si       0.35277    0.85682    0.15261    1.000
    N2604    N        0.29804    0.77147    0.14608    1.000
    Si2605   Si       0.33668    0.78390    0.16065    1.000
    N2606    N        0.36122    0.81378    0.14326    1.000
    Si2607   Si       0.39688    0.79095    0.15319    1.000
    N2608    N        0.42269    0.78782    0.11831    1.000
    N2609    N        0.30815    0.93135    0.12676    1.000
    Si2610   Si       0.32928    0.96343    0.14444    1.000
    Si2611   Si       0.28876    0.89932    0.14956    1.000
    N2612    N        0.25236    0.90503    0.12716    1.000
    N2613    N        0.29833    0.99522    0.14474    1.000
    N2614    N        0.37927    0.87886    0.12722    1.000
    Si2615   Si       0.40034    0.96725    0.11495    1.000
    Si2616   Si       0.41600    0.89857    0.14039    1.000
    N2617    N        0.41101    0.94145    0.15070    1.000
    Si2618   Si       0.44243    0.97435    0.16036    1.000
    N2619    N        0.42597    0.99856    0.12942    1.000
    N2620    N        0.48549    0.97128    0.16761    1.000
    N2621    N        0.33093    0.80318    0.20038    1.000
    N2622    N        0.26052    0.80018    0.19757    1.000
    Si2623   Si       0.29529    0.81465    0.22160    1.000
    N2624    N        0.35727    0.86449    0.19642    1.000
    N2625    N        0.28914    0.85657    0.22733    1.000
    Si2626   Si       0.26723    0.76431    0.17366    1.000
    Si2627   Si       0.39082    0.95123    0.19078    1.000
    Si2628   Si       0.36895    0.82233    0.21015    1.000
    N2629    N        0.47073    0.77743    0.18580    1.000
    Si2630   Si       0.44678    0.80813    0.20856    1.000
    N2631    N        0.40588    0.80928    0.19096    1.000
    N2632    N        0.47774    0.83903    0.20047    1.000
    Si2633   Si       0.46598    0.88153    0.19057    1.000
    N2634    N        0.42510    0.88183    0.17631    1.000
    Si2635   Si       0.39767    0.88191    0.20986    1.000
    Si2636   Si       0.32033    0.88313    0.21418    1.000
    Si2637   Si       0.25982    0.93838    0.20176    1.000
    N2638    N        0.29041    0.90840    0.19039    1.000
    Si2639   Si       0.32947    0.97852    0.21759    1.000
    N2640    N        0.34865    0.96025    0.18327    1.000
    N2641    N        0.28817    0.96446    0.22514    1.000
    N2642    N        0.39062    0.92190    0.22260    1.000
    N2643    N        0.42261    0.97945    0.19913    1.000
    N2644    N        0.47077    0.90491    0.22637    1.000
    N2645    N        0.30016    0.78734    0.25648    1.000
    Si2646   Si       0.34470    0.78109    0.26004    1.000
    Si2647   Si       0.26465    0.76209    0.24435    1.000
    N2648    N        0.48153    0.85804    0.27618    1.000
    N2649    N        0.37382    0.81267    0.25247    1.000
    N2650    N        0.44268    0.79992    0.25017    1.000
    Si2651   Si       0.41204    0.82609    0.26724    1.000
    N2652    N        0.41816    0.86398    0.24343    1.000
    Si2653   Si       0.44451    0.76465    0.27313    1.000
    Si2654   Si       0.45052    0.88641    0.26244    1.000
    N2655    N        0.26060    0.88692    0.27463    1.000
    N2656    N        0.33188    0.90823    0.24818    1.000
    Si2657   Si       0.29962    0.90761    0.27717    1.000
    N2658    N        0.36212    0.97803    0.24664    1.000
    Si2659   Si       0.27550    0.97942    0.26336    1.000
    N2660    N        0.27325    0.94496    0.28824    1.000
    Si2661   Si       0.36580    0.93384    0.25552    1.000
    Si2662   Si       0.24970    0.87553    0.23288    1.000
    N2663    N        0.28514    0.83510    0.31095    1.000
    Si2664   Si       0.31305    0.86062    0.33111    1.000
    N2665    N        0.33921    0.78262    0.30390    1.000
    Si2666   Si       0.29627    0.79493    0.30058    1.000
    N2667    N        0.35173    0.84248    0.33059    1.000
    Si2668   Si       0.24725    0.85672    0.30550    1.000
    N2669    N        0.27077    0.77355    0.32710    1.000
    Si2670   Si       0.35920    0.79758    0.34286    1.000
    Si2671   Si       0.39216    0.85502    0.33787    1.000
    N2672    N        0.41837    0.83878    0.30735    1.000
    N2673    N        0.43900    0.77333    0.31696    1.000
    Si2674   Si       0.43541    0.81101    0.33868    1.000
    N2675    N        0.32838    0.96970    0.32493    1.000
    N2676    N        0.31619    0.90029    0.31512    1.000
    Si2677   Si       0.31372    0.93404    0.34225    1.000
    N2678    N        0.23969    0.88745    0.33521    1.000
    Si2679   Si       0.23963    0.91846    0.30022    1.000
    Si2680   Si       0.30773    0.00718    0.31835    1.000
    N2681    N        0.44860    0.94795    0.34575    1.000
    N2682    N        0.44596    0.91387    0.29494    1.000
    Si2683   Si       0.41725    0.92624    0.32468    1.000
    N2684    N        0.39195    0.00580    0.30539    1.000
    Si2685   Si       0.37078    0.97113    0.31909    1.000
    Si2686   Si       0.48074    0.94007    0.31155    1.000
    N2687    N        0.38576    0.93819    0.29563    1.000
    N2688    N        0.39934    0.89540    0.34956    1.000
    Si2689   Si       0.25162    0.97164    0.34643    1.000
    N2690    N        0.32300    0.79793    0.37219    1.000
    N2691    N        0.29447    0.86583    0.36969    1.000
    N2692    N        0.25777    0.78258    0.39149    1.000
    Si2693   Si       0.31488    0.83555    0.39353    1.000
    Si2694   Si       0.29037    0.77004    0.36622    1.000
    N2695    N        0.46693    0.82901    0.36245    1.000
    N2696    N        0.39850    0.81829    0.36221    1.000
    Si2697   Si       0.46169    0.85174    0.39912    1.000
    N2698    N        0.45468    0.76478    0.38039    1.000
    Si2699   Si       0.39048    0.82275    0.40398    1.000
    Si2700   Si       0.41040    0.75583    0.38758    1.000
    N2701    N        0.27628    0.93731    0.36282    1.000
    N2702    N        0.33524    0.92294    0.37868    1.000
    Si2703   Si       0.26213    0.89598    0.37065    1.000
    Si2704   Si       0.48684    0.79132    0.39694    1.000
    Si2705   Si       0.37801    0.91932    0.37586    1.000
    N2706    N        0.47422    0.89159    0.39015    1.000
    N2707    N        0.38605    0.95854    0.35794    1.000
    Si2708   Si       0.39808    0.98677    0.38718    1.000
    Si2709   Si       0.47732    0.93293    0.37608    1.000
    N2710    N        0.23791    0.98092    0.38757    1.000
    Si2711   Si       0.25061    0.94499    0.40928    1.000
    N2712    N        0.28797    0.83154    0.42732    1.000
    Si2713   Si       0.28176    0.87308    0.44190    1.000
    Si2714   Si       0.26335    0.79526    0.43331    1.000
    N2715    N        0.28905    0.76305    0.44765    1.000
    Si2716   Si       0.35936    0.87894    0.43566    1.000
    N2717    N        0.35440    0.84540    0.40738    1.000
    Si2718   Si       0.36960    0.76023    0.44847    1.000
    N2719    N        0.38840    0.78169    0.41771    1.000
    N2720    N        0.42191    0.85003    0.41827    1.000
    Si2721   Si       0.42157    0.86751    0.46000    1.000
    N2722    N        0.48321    0.82354    0.42481    1.000
    N2723    N        0.38433    0.90816    0.41767    1.000
    Si2724   Si       0.29692    0.00128    0.44299    1.000
    N2725    N        0.32008    0.89477    0.44274    1.000
    N2726    N        0.29350    0.96167    0.42726    1.000
    Si2727   Si       0.30936    0.92505    0.41293    1.000
    N2728    N        0.26473    0.90338    0.41368    1.000
    Si2729   Si       0.40391    0.93739    0.44465    1.000
    Si2730   Si       0.37019    0.99657    0.44988    1.000
    N2731    N        0.37169    0.95472    0.46448    1.000
    N2732    N        0.42219    0.96874    0.41901    1.000
    Si2733   Si       0.46080    0.98258    0.43248    1.000
    N2734    N        0.36401    0.00405    0.40923    1.000
    N2735    N        0.28457    0.81057    0.50012    1.000
    Si2736   Si       0.31001    0.77923    0.48152    1.000
    Si2737   Si       0.25543    0.87562    0.51501    1.000
    N2738    N        0.34946    0.79029    0.47333    1.000
    Si2739   Si       0.24153    0.80765    0.50033    1.000
    N2740    N        0.25308    0.88061    0.47293    1.000
    N2741    N        0.48011    0.91343    0.51900    1.000
    Si2742   Si       0.36874    0.82529    0.48980    1.000
    N2743    N        0.45314    0.85138    0.48157    1.000
    N2744    N        0.40683    0.81125    0.51165    1.000
    Si2745   Si       0.40674    0.76643    0.51249    1.000
    Si2746   Si       0.44786    0.82782    0.51740    1.000
    N2747    N        0.48164    0.80169    0.50101    1.000
    Si2748   Si       0.47213    0.92152    0.47715    1.000
    Si2749   Si       0.35232    0.95211    0.50562    1.000
    N2750    N        0.31036    0.95922    0.50211    1.000
    Si2751   Si       0.28232    0.99078    0.50836    1.000
    N2752    N        0.38035    0.85942    0.46846    1.000
    N2753    N        0.47373    0.96428    0.46796    1.000
    Si2754   Si       0.48974    0.83131    0.46851    1.000
    N2755    N        0.34794    0.83193    0.52760    1.000
    N2756    N        0.43325    0.91006    0.46107    1.000
    N2757    N        0.26383    0.00197    0.47038    1.000
    N2758    N        0.30539    0.79739    0.56410    1.000
    Si2759   Si       0.30508    0.83075    0.53457    1.000
    N2760    N        0.29320    0.87262    0.53612    1.000
    Si2761   Si       0.37798    0.81146    0.54882    1.000
    N2762    N        0.37866    0.76814    0.54678    1.000
    N2763    N        0.45833    0.83503    0.55918    1.000
    Si2764   Si       0.42898    0.85534    0.58608    1.000
    N2765    N        0.25262    0.98020    0.53956    1.000
    N2766    N        0.29428    0.93605    0.57177    1.000
    Si2767   Si       0.25394    0.94105    0.55664    1.000
    Si2768   Si       0.31864    0.90392    0.55315    1.000
    N2769    N        0.35560    0.91705    0.53148    1.000
    N2770    N        0.32558    0.99654    0.57865    1.000
    N2771    N        0.37435    0.98475    0.52610    1.000
    Si2772   Si       0.37890    0.91159    0.56920    1.000
    Si2773   Si       0.45638    0.91420    0.55603    1.000
    Si2774   Si       0.46036    0.99557    0.56482    1.000
    Si2775   Si       0.36638    0.98947    0.56867    1.000
    N2776    N        0.41832    0.89244    0.56719    1.000
    N2777    N        0.44813    0.95468    0.55801    1.000
    Si2778   Si       0.31056    0.79682    0.60734    1.000
    Si2779   Si       0.32986    0.87073    0.62440    1.000
    N2780    N        0.30166    0.83646    0.62275    1.000
    N2781    N        0.35128    0.78683    0.62180    1.000
    N2782    N        0.28107    0.76507    0.61912    1.000
    Si2783   Si       0.24306    0.78338    0.61934    1.000
    N2784    N        0.44669    0.99914    0.60612    1.000
    N2785    N        0.36789    0.85516    0.63738    1.000
    N2786    N        0.47943    0.80856    0.62637    1.000
    Si2787   Si       0.38256    0.81590    0.62522    1.000
    N2788    N        0.43642    0.86397    0.62897    1.000
    Si2789   Si       0.48476    0.80992    0.58288    1.000
    Si2790   Si       0.30713    0.96641    0.60245    1.000
    N2791    N        0.27203    0.98433    0.61964    1.000
    N2792    N        0.34092    0.89214    0.58785    1.000
    N2793    N        0.33098    0.96125    0.64106    1.000
    Si2794   Si       0.46943    0.89548    0.63362    1.000
    N2795    N        0.47987    0.90315    0.59302    1.000
    Si2796   Si       0.37356    0.95489    0.63009    1.000
    N2797    N        0.37680    0.95111    0.58737    1.000
    Si2798   Si       0.46728    0.97767    0.63612    1.000
    N2799    N        0.38239    0.99613    0.64004    1.000
    N2800    N        0.23991    0.81861    0.64309    1.000
    N2801    N        0.39602    0.82599    0.58329    1.000
    Si2802   Si       0.27798    0.82944    0.65948    1.000
    N2803    N        0.30088    0.80070    0.68317    1.000
    N2804    N        0.26928    0.85487    0.69271    1.000
    Si2805   Si       0.32978    0.77026    0.70065    1.000
    N2806    N        0.36910    0.76353    0.68193    1.000
    Si2807   Si       0.40866    0.78533    0.68880    1.000
    N2808    N        0.40353    0.87356    0.69397    1.000
    N2809    N        0.46044    0.82214    0.69529    1.000
    Si2810   Si       0.45158    0.82847    0.65082    1.000
    N2811    N        0.41422    0.80344    0.65044    1.000
    Si2812   Si       0.40097    0.88033    0.65048    1.000
    Si2813   Si       0.34238    0.00005    0.65989    1.000
    Si2814   Si       0.31803    0.93320    0.67174    1.000
    N2815    N        0.31395    0.89311    0.65683    1.000
    N2816    N        0.28159    0.92712    0.69730    1.000
    Si2817   Si       0.29805    0.88682    0.69947    1.000
    N2818    N        0.46145    0.93553    0.65041    1.000
    Si2819   Si       0.44892    0.95153    0.68822    1.000
    N2820    N        0.39247    0.92203    0.64975    1.000
    N2821    N        0.45086    0.99197    0.67511    1.000
    N2822    N        0.31775    0.86110    0.72917    1.000
    N2823    N        0.33022    0.79383    0.73613    1.000
    Si2824   Si       0.29730    0.82413    0.72140    1.000
    N2825    N        0.26350    0.81171    0.74547    1.000
    N2826    N        0.44637    0.00543    0.74220    1.000
    N2827    N        0.38027    0.97241    0.75341    1.000
    N2828    N        0.44197    0.76144    0.71176    1.000
    N2829    N        0.39926    0.81328    0.72103    1.000
    N2830    N        0.45520    0.87126    0.73991    1.000
    Si2831   Si       0.42788    0.84565    0.71690    1.000
    Si2832   Si       0.47468    0.78950    0.71981    1.000
    Si2833   Si       0.36792    0.80293    0.75171    1.000
    N2834    N        0.48245    0.81162    0.75786    1.000
    Si2835   Si       0.24132    0.94659    0.70445    1.000
    Si2836   Si       0.34336    0.96594    0.73137    1.000
    N2837    N        0.25547    0.97695    0.73575    1.000
    N2838    N        0.33891    0.99864    0.70230    1.000
    N2839    N        0.47954    0.93919    0.72033    1.000
    N2840    N        0.37527    0.90330    0.75170    1.000
    Si2841   Si       0.45178    0.91543    0.74130    1.000
    N2842    N        0.41968    0.93286    0.71457    1.000
    N2843    N        0.34744    0.93315    0.70146    1.000
    Si2844   Si       0.38384    0.91073    0.70896    1.000
    N2845    N        0.25956    0.77603    0.80726    1.000
    N2846    N        0.32862    0.75547    0.80973    1.000
    N2847    N        0.36834    0.83870    0.77577    1.000
    N2848    N        0.44333    0.78458    0.80883    1.000
    N2849    N        0.38484    0.76479    0.76597    1.000
    N2850    N        0.42576    0.86716    0.81489    1.000
    Si2851   Si       0.38886    0.84376    0.81358    1.000
    Si2852   Si       0.48391    0.78962    0.79844    1.000
    N2853    N        0.32334    0.89087    0.79339    1.000
    N2854    N        0.26300    0.93050    0.79611    1.000
    Si2855   Si       0.30535    0.93039    0.79541    1.000
    N2856    N        0.31466    0.95887    0.76222    1.000
    Si2857   Si       0.28587    0.99247    0.76229    1.000
    N2858    N        0.28727    0.00548    0.80547    1.000
    N2859    N        0.38430    0.93443    0.81379    1.000
    Si2860   Si       0.46338    0.00648    0.78328    1.000
    Si2861   Si       0.39428    0.93741    0.77257    1.000
    Si2862   Si       0.42229    0.91149    0.81744    1.000
    N2863    N        0.43714    0.92629    0.77927    1.000
    Si2864   Si       0.25669    0.77044    0.76274    1.000
    Si2865   Si       0.34562    0.87297    0.76222    1.000
    Si2866   Si       0.34083    0.78891    0.83713    1.000
    Si2867   Si       0.24409    0.87635    0.84805    1.000
    N2868    N        0.26122    0.79540    0.86832    1.000
    Si2869   Si       0.26918    0.81215    0.82957    1.000
    Si2870   Si       0.31924    0.86487    0.82757    1.000
    N2871    N        0.31242    0.82150    0.82831    1.000
    N2872    N        0.36034    0.86457    0.84164    1.000
    N2873    N        0.23882    0.84219    0.82168    1.000
    N2874    N        0.38202    0.80342    0.83107    1.000
    Si2875   Si       0.41800    0.78367    0.84219    1.000
    N2876    N        0.46377    0.86788    0.86729    1.000
    Si2877   Si       0.46986    0.85937    0.82429    1.000
    N2878    N        0.41430    0.99424    0.86177    1.000
    N2879    N        0.28781    0.88710    0.85075    1.000
    Si2880   Si       0.31207    0.99022    0.83567    1.000
    N2881    N        0.31744    0.94784    0.83644    1.000
    Si2882   Si       0.30676    0.91959    0.87043    1.000
    N2883    N        0.35560    0.99781    0.83106    1.000
    N2884    N        0.44349    0.92887    0.84938    1.000
    N2885    N        0.47442    0.99065    0.82583    1.000
    Si2886   Si       0.36117    0.95701    0.84207    1.000
    Si2887   Si       0.44965    0.97141    0.85723    1.000
    N2888    N        0.23921    0.97508    0.84434    1.000
    N2889    N        0.32790    0.77837    0.87739    1.000
    Si2890   Si       0.25727    0.82337    0.90040    1.000
    N2891    N        0.29802    0.83563    0.90853    1.000
    Si2892   Si       0.33131    0.80970    0.90888    1.000
    Si2893   Si       0.31020    0.87308    0.92329    1.000
    Si2894   Si       0.28707    0.76144    0.88144    1.000
    Si2895   Si       0.45601    0.95704    0.92777    1.000
    Si2896   Si       0.44217    0.90162    0.88423    1.000
    N2897    N        0.36952    0.82928    0.90338    1.000
    Si2898   Si       0.40192    0.80246    0.91169    1.000
    Si2899   Si       0.45859    0.83401    0.89278    1.000
    N2900    N        0.44823    0.85191    0.93224    1.000
    Si2901   Si       0.37046    0.86870    0.88362    1.000
    N2902    N        0.42956    0.80440    0.87940    1.000
    N2903    N        0.39958    0.75841    0.91953    1.000
    N2904    N        0.33610    0.89717    0.89432    1.000
    N2905    N        0.27957    0.94232    0.89519    1.000
    Si2906   Si       0.25953    0.93095    0.93272    1.000
    Si2907   Si       0.26294    0.97737    0.88068    1.000
    Si2908   Si       0.37013    0.92395    0.91331    1.000
    N2909    N        0.46848    0.91840    0.91433    1.000
    N2910    N        0.36690    0.95592    0.88486    1.000
    N2911    N        0.41386    0.96660    0.93008    1.000
    N2912    N        0.40118    0.89654    0.89880    1.000
    N2913    N        0.47216    0.98164    0.89534    1.000
    Si2914   Si       0.39315    0.98951    0.89859    1.000
    N2915    N        0.23993    0.80452    0.93439    1.000
    Si2916   Si       0.25665    0.76820    0.95321    1.000
    N2917    N        0.34131    0.86468    0.95115    1.000
    N2918    N        0.28249    0.77761    0.98619    1.000
    N2919    N        0.33908    0.79838    0.94963    1.000
    Si2920   Si       0.32668    0.77825    0.98632    1.000
    Si2921   Si       0.36736    0.83087    0.96484    1.000
    N2922    N        0.40470    0.80876    0.95819    1.000
    Si2923   Si       0.44217    0.82887    0.96882    1.000
    Si2924   Si       0.39804    0.76558    0.96243    1.000
    Si2925   Si       0.47570    0.76631    0.97298    1.000
    N2926    N        0.48328    0.80817    0.96870    1.000
    N2927    N        0.37053    0.99254    0.98003    1.000
    Si2928   Si       0.28291    0.88770    0.98721    1.000
    N2929    N        0.27908    0.89422    0.94592    1.000
    N2930    N        0.25790    0.96121    0.96599    1.000
    Si2931   Si       0.35606    0.89203    0.98112    1.000
    Si2932   Si       0.24593    0.00013    0.95473    1.000
    N2933    N        0.37182    0.92220    0.95647    1.000
    Si2934   Si       0.48020    0.88547    0.94051    1.000
    N2935    N        0.47202    0.89686    0.98118    1.000
    N2936    N        0.47405    0.96194    0.96500    1.000
    Si2937   Si       0.39436    0.95884    0.96875    1.000
    Si2938   Si       0.51924    0.09157    0.03006    1.000
    Si2939   Si       0.58921    0.07614    0.04474    1.000
    N2940    N        0.59383    0.08733    0.99942    1.000
    N2941    N        0.54865    0.06241    0.04842    1.000
    N2942    N        0.54178    0.12739    0.02155    1.000
    Si2943   Si       0.54290    0.16113    0.05135    1.000
    N2944    N        0.48921    0.02090    0.00504    1.000
    Si2945   Si       0.69209    0.00822    0.04140    1.000
    N2946    N        0.72030    0.03820    0.01966    1.000
    Si2947   Si       0.69180    0.11107    0.01136    1.000
    N2948    N        0.72367    0.10727    0.04188    1.000
    Si2949   Si       0.62286    0.01284    0.02518    1.000
    N2950    N        0.66839    0.08118    0.99642    1.000
    Si2951   Si       0.63441    0.11153    0.99617    1.000
    N2952    N        0.66224    0.01301    0.01294    1.000
    N2953    N        0.65760    0.13197    0.03098    1.000
    Si2954   Si       0.52678    0.21576    0.01694    1.000
    N2955    N        0.60455    0.14953    0.00451    1.000
    N2956    N        0.51412    0.19444    0.05211    1.000
    N2957    N        0.69131    0.19646    0.02964    1.000
    N2958    N        0.54446    0.25503    0.03118    1.000
    Si2959   Si       0.61574    0.14698    0.04839    1.000
    N2960    N        0.55315    0.19085    0.99670    1.000
    N2961    N        0.62157    0.21651    0.02697    1.000
    Si2962   Si       0.73486    0.20155    0.02550    1.000
    Si2963   Si       0.66219    0.22836    0.01800    1.000
    Si2964   Si       0.51602    0.04905    0.07204    1.000
    N2965    N        0.60131    0.11007    0.06846    1.000
    N2966    N        0.49721    0.01026    0.07302    1.000
    N2967    N        0.48865    0.08143    0.05864    1.000
    Si2968   Si       0.61052    0.10868    0.10906    1.000
    N2969    N        0.61881    0.04600    0.05451    1.000
    Si2970   Si       0.72823    0.12080    0.08386    1.000
    Si2971   Si       0.71739    0.04684    0.09981    1.000
    N2972    N        0.68317    0.02672    0.07907    1.000
    Si2973   Si       0.64341    0.03895    0.08880    1.000
    N2974    N        0.70631    0.08928    0.10817    1.000
    N2975    N        0.60041    0.24622    0.08379    1.000
    Si2976   Si       0.61007    0.20702    0.07106    1.000
    N2977    N        0.58162    0.17640    0.06088    1.000
    N2978    N        0.52868    0.14121    0.08730    1.000
    N2979    N        0.49000    0.25122    0.09207    1.000
    N2980    N        0.70412    0.15648    0.08712    1.000
    Si2981   Si       0.67712    0.16363    0.05579    1.000
    N2982    N        0.63976    0.17489    0.07639    1.000
    Si2983   Si       0.48683    0.14549    0.10235    1.000
    Si2984   Si       0.53776    0.03276    0.14841    1.000
    N2985    N        0.57531    0.11331    0.13339    1.000
    N2986    N        0.57959    0.04996    0.15351    1.000
    N2987    N        0.50002    0.12029    0.13690    1.000
    Si2988   Si       0.71072    0.17914    0.12213    1.000
    N2989    N        0.52379    0.06062    0.11352    1.000
    N2990    N        0.49016    0.18610    0.11625    1.000
    Si2991   Si       0.62101    0.04292    0.14531    1.000
    Si2992   Si       0.67074    0.10021    0.12911    1.000
    N2993    N        0.72384    0.02024    0.13528    1.000
    N2994    N        0.63608    0.07341    0.11594    1.000
    N2995    N        0.62741    0.01060    0.11711    1.000
    Si2996   Si       0.53965    0.13757    0.12951    1.000
    Si2997   Si       0.64145    0.17578    0.11887    1.000
    N2998    N        0.51234    0.23546    0.16120    1.000
    Si2999   Si       0.60143    0.24384    0.13169    1.000
    Si3000   Si       0.50744    0.19229    0.15511    1.000
    N3001    N        0.54631    0.17366    0.15061    1.000
    N3002    N        0.60460    0.19927    0.12680    1.000
    Si3003   Si       0.58253    0.19108    0.16329    1.000
    N3004    N        0.67547    0.19837    0.13784    1.000
    Si3005   Si       0.67290    0.23211    0.16564    1.000
    N3006    N        0.71644    0.14921    0.15333    1.000
    N3007    N        0.63978    0.13486    0.13122    1.000
    N3008    N        0.71204    0.25621    0.16948    1.000
    N3009    N        0.54356    0.11661    0.19103    1.000
    N3010    N        0.60137    0.02614    0.21575    1.000
    N3011    N        0.60838    0.09526    0.19145    1.000
    N3012    N        0.66455    0.15060    0.20276    1.000
    Si3013   Si       0.64062    0.18520    0.21194    1.000
    Si3014   Si       0.57091    0.08999    0.16959    1.000
    Si3015   Si       0.67376    0.06278    0.19536    1.000
    N3016    N        0.71638    0.05692    0.20476    1.000
    N3017    N        0.64999    0.03465    0.17553    1.000
    Si3018   Si       0.63500    0.12827    0.17793    1.000
    N3019    N        0.67454    0.09888    0.17132    1.000
    Si3020   Si       0.73470    0.02838    0.17730    1.000
    Si3021   Si       0.51608    0.14581    0.20586    1.000
    N3022    N        0.60561    0.16582    0.18984    1.000
    N3023    N        0.54340    0.17686    0.22299    1.000
    Si3024   Si       0.58355    0.16391    0.22737    1.000
    N3025    N        0.58232    0.23210    0.17634    1.000
    N3026    N        0.66587    0.21903    0.20701    1.000
    Si3027   Si       0.69890    0.12881    0.18955    1.000
    N3028    N        0.50743    0.05715    0.17133    1.000
    Si3029   Si       0.54763    0.25975    0.17045    1.000
    N3030    N        0.57391    0.07591    0.25594    1.000
    Si3031   Si       0.53686    0.05495    0.26769    1.000
    N3032    N        0.54412    0.01524    0.25449    1.000
    N3033    N        0.49695    0.06542    0.25244    1.000
    Si3034   Si       0.58690    0.10434    0.28731    1.000
    N3035    N        0.72353    0.01265    0.25426    1.000
    N3036    N        0.70235    0.08060    0.27498    1.000
    Si3037   Si       0.72690    0.05611    0.24807    1.000
    Si3038   Si       0.66018    0.07344    0.27568    1.000
    N3039    N        0.65211    0.06806    0.23306    1.000
    N3040    N        0.63081    0.10575    0.28241    1.000
    N3041    N        0.50432    0.13340    0.24824    1.000
    Si3042   Si       0.59071    0.23546    0.25093    1.000
    Si3043   Si       0.52024    0.20597    0.24862    1.000
    N3044    N        0.54573    0.23981    0.24611    1.000
    N3045    N        0.57972    0.14702    0.26872    1.000
    Si3046   Si       0.53474    0.14347    0.27671    1.000
    N3047    N        0.60931    0.19627    0.24417    1.000
    N3048    N        0.52326    0.18629    0.28805    1.000
    N3049    N        0.70211    0.19440    0.26797    1.000
    Si3050   Si       0.69047    0.22534    0.24212    1.000
    Si3051   Si       0.60016    0.18279    0.28782    1.000
    Si3052   Si       0.60771    0.06866    0.22661    1.000
    N3053    N        0.72804    0.24632    0.23294    1.000
    N3054    N        0.67140    0.25534    0.27023    1.000
    N3055    N        0.58959    0.07291    0.32022    1.000
    N3056    N        0.52508    0.05136    0.31263    1.000
    N3057    N        0.54885    0.11761    0.31105    1.000
    Si3058   Si       0.54735    0.07790    0.33928    1.000
    Si3059   Si       0.49263    0.02346    0.32188    1.000
    Si3060   Si       0.62624    0.05070    0.32634    1.000
    N3061    N        0.65959    0.08069    0.33116    1.000
    Si3062   Si       0.72385    0.10960    0.30055    1.000
    Si3063   Si       0.65181    0.12653    0.31445    1.000
    N3064    N        0.64163    0.03492    0.28866    1.000
    Si3065   Si       0.56888    0.22084    0.33021    1.000
    N3066    N        0.52737    0.23120    0.33929    1.000
    Si3067   Si       0.50286    0.19827    0.32340    1.000
    N3068    N        0.57946    0.17722    0.32989    1.000
    N3069    N        0.58992    0.22718    0.29317    1.000
    Si3070   Si       0.55003    0.14722    0.34272    1.000
    N3071    N        0.63969    0.17153    0.30018    1.000
    N3072    N        0.68386    0.21708    0.33078    1.000
    N3073    N        0.69350    0.14144    0.31045    1.000
    Si3074   Si       0.68307    0.18364    0.30537    1.000
    N3075    N        0.51107    0.16391    0.35008    1.000
    N3076    N        0.52236    0.09882    0.37084    1.000
    N3077    N        0.55809    0.04994    0.37398    1.000
    Si3078   Si       0.57756    0.01292    0.37099    1.000
    Si3079   Si       0.53610    0.07218    0.40490    1.000
    Si3080   Si       0.73664    0.17530    0.40839    1.000
    Si3081   Si       0.68912    0.22180    0.37394    1.000
    N3082    N        0.61692    0.02191    0.35652    1.000
    Si3083   Si       0.67614    0.07324    0.37054    1.000
    N3084    N        0.69643    0.10678    0.38747    1.000
    N3085    N        0.69344    0.03402    0.37240    1.000
    Si3086   Si       0.63039    0.02546    0.39806    1.000
    Si3087   Si       0.73251    0.03076    0.35379    1.000
    N3088    N        0.64313    0.06615    0.40057    1.000
    N3089    N        0.57512    0.14185    0.37913    1.000
    N3090    N        0.59140    0.24455    0.35822    1.000
    Si3091   Si       0.60898    0.16413    0.36276    1.000
    N3092    N        0.69428    0.18238    0.39356    1.000
    Si3093   Si       0.67411    0.14379    0.38670    1.000
    Si3094   Si       0.61974    0.23314    0.38747    1.000
    N3095    N        0.62329    0.19157    0.39268    1.000
    N3096    N        0.64373    0.13875    0.35562    1.000
    N3097    N        0.66054    0.25056    0.38963    1.000
    N3098    N        0.73144    0.23484    0.37821    1.000
    N3099    N        0.57232    0.09082    0.42666    1.000
    N3100    N        0.52352    0.02436    0.42190    1.000
    N3101    N        0.50403    0.08121    0.43680    1.000
    Si3102   Si       0.49380    0.04170    0.44996    1.000
    Si3103   Si       0.55901    0.00889    0.44134    1.000
    Si3104   Si       0.56914    0.13304    0.42077    1.000
    Si3105   Si       0.71800    0.10029    0.42254    1.000
    N3106    N        0.68911    0.08579    0.45207    1.000
    Si3107   Si       0.64829    0.09541    0.43490    1.000
    Si3108   Si       0.49053    0.23044    0.43479    1.000
    Si3109   Si       0.56166    0.25375    0.43339    1.000
    N3110    N        0.60391    0.24247    0.42870    1.000
    N3111    N        0.53420    0.21956    0.43375    1.000
    N3112    N        0.52871    0.14393    0.43398    1.000
    N3113    N        0.59342    0.15711    0.44912    1.000
    Si3114   Si       0.52577    0.18240    0.45257    1.000
    Si3115   Si       0.63647    0.24337    0.45659    1.000
    N3116    N        0.64786    0.20185    0.45849    1.000
    Si3117   Si       0.49052    0.12415    0.43988    1.000
    N3118    N        0.64917    0.13644    0.42259    1.000
    N3119    N        0.72780    0.14123    0.43500    1.000
    Si3120   Si       0.62805    0.17435    0.43115    1.000
    N3121    N        0.56953    0.10876    0.49657    1.000
    Si3122   Si       0.54256    0.02846    0.50783    1.000
    N3123    N        0.50090    0.03109    0.49128    1.000
    N3124    N        0.56824    0.03801    0.47264    1.000
    Si3125   Si       0.58358    0.07849    0.46766    1.000
    Si3126   Si       0.66653    0.06346    0.48547    1.000
    N3127    N        0.67655    0.02299    0.48170    1.000
    N3128    N        0.62808    0.07695    0.46922    1.000
    Si3129   Si       0.67361    0.18582    0.49036    1.000
    N3130    N        0.54128    0.17380    0.49366    1.000
    Si3131   Si       0.57968    0.15124    0.48963    1.000
    N3132    N        0.60667    0.17187    0.51801    1.000
    N3133    N        0.67628    0.14219    0.49214    1.000
    Si3134   Si       0.71739    0.14520    0.47691    1.000
    N3135    N        0.71578    0.19052    0.47901    1.000
    N3136    N        0.62091    0.24624    0.49636    1.000
    N3137    N        0.57826    0.11646    0.56491    1.000
    Si3138   Si       0.51211    0.04604    0.56688    1.000
    N3139    N        0.54309    0.05823    0.53853    1.000
    Si3140   Si       0.54904    0.10035    0.53426    1.000
    N3141    N        0.51642    0.12721    0.54373    1.000
    Si3142   Si       0.66173    0.04954    0.55883    1.000
    N3143    N        0.70267    0.03443    0.56956    1.000
    N3144    N        0.62954    0.02204    0.55483    1.000
    Si3145   Si       0.67793    0.12200    0.53025    1.000
    N3146    N        0.64703    0.13131    0.55886    1.000
    Si3147   Si       0.52174    0.16999    0.53243    1.000
    N3148    N        0.54606    0.18858    0.56469    1.000
    N3149    N        0.59111    0.23774    0.54584    1.000
    N3150    N        0.50262    0.23972    0.56760    1.000
    Si3151   Si       0.60724    0.15027    0.55573    1.000
    Si3152   Si       0.58028    0.21436    0.58118    1.000
    Si3153   Si       0.68426    0.22429    0.56215    1.000
    N3154    N        0.66399    0.20652    0.52738    1.000
    N3155    N        0.72652    0.22986    0.56006    1.000
    N3156    N        0.71625    0.13465    0.54757    1.000
    N3157    N        0.67118    0.07884    0.52643    1.000
    Si3158   Si       0.62192    0.21292    0.52310    1.000
    N3159    N        0.52039    0.05640    0.60898    1.000
    Si3160   Si       0.57942    0.10183    0.60630    1.000
    Si3161   Si       0.50671    0.09664    0.62434    1.000
    N3162    N        0.58874    0.06017    0.61421    1.000
    Si3163   Si       0.55517    0.03136    0.61778    1.000
    N3164    N        0.54626    0.11421    0.63240    1.000
    N3165    N        0.61909    0.11732    0.61666    1.000
    N3166    N        0.65938    0.06668    0.59999    1.000
    Si3167   Si       0.65493    0.11052    0.59542    1.000
    Si3168   Si       0.62776    0.05247    0.62843    1.000
    Si3169   Si       0.69835    0.04923    0.61309    1.000
    N3170    N        0.73879    0.06223    0.61482    1.000
    N3171    N        0.63217    0.01043    0.62052    1.000
    N3172    N        0.69214    0.12702    0.60815    1.000
    Si3173   Si       0.52180    0.21313    0.59531    1.000
    N3174    N        0.55683    0.23266    0.61332    1.000
    N3175    N        0.50691    0.18435    0.62070    1.000
    Si3176   Si       0.70886    0.15896    0.58429    1.000
    Si3177   Si       0.64261    0.19590    0.61092    1.000
    N3178    N        0.63117    0.23621    0.61964    1.000
    N3179    N        0.68003    0.19086    0.58853    1.000
    N3180    N        0.60998    0.18439    0.58321    1.000
    N3181    N        0.56413    0.02155    0.66176    1.000
    Si3182   Si       0.59719    0.03073    0.69030    1.000
    Si3183   Si       0.55711    0.12395    0.67299    1.000
    Si3184   Si       0.50682    0.07360    0.69561    1.000
    N3185    N        0.73926    0.23496    0.69775    1.000
    N3186    N        0.70657    0.16600    0.68167    1.000
    Si3187   Si       0.64081    0.25127    0.65848    1.000
    Si3188   Si       0.70434    0.01535    0.68669    1.000
    N3189    N        0.62995    0.05545    0.67098    1.000
    N3190    N        0.66672    0.11026    0.66595    1.000
    Si3191   Si       0.66262    0.07643    0.69173    1.000
    N3192    N        0.69461    0.01833    0.64446    1.000
    N3193    N        0.60065    0.12828    0.68199    1.000
    Si3194   Si       0.49904    0.17753    0.66153    1.000
    N3195    N        0.52937    0.15612    0.68465    1.000
    N3196    N        0.60162    0.24504    0.67617    1.000
    N3197    N        0.50496    0.21376    0.68565    1.000
    Si3198   Si       0.63105    0.13293    0.65537    1.000
    Si3199   Si       0.70074    0.13322    0.65077    1.000
    N3200    N        0.66907    0.22893    0.68353    1.000
    N3201    N        0.64553    0.17368    0.64825    1.000
    Si3202   Si       0.66811    0.18508    0.68526    1.000
    N3203    N        0.54826    0.08831    0.69866    1.000
    N3204    N        0.59114    0.04351    0.73241    1.000
    Si3205   Si       0.56693    0.07929    0.73635    1.000
    N3206    N        0.58951    0.11707    0.74822    1.000
    Si3207   Si       0.72805    0.08048    0.72989    1.000
    N3208    N        0.64938    0.09616    0.72790    1.000
    Si3209   Si       0.61986    0.12928    0.72046    1.000
    N3210    N        0.70146    0.06043    0.70026    1.000
    Si3211   Si       0.68475    0.01118    0.75717    1.000
    N3212    N        0.50549    0.16814    0.74511    1.000
    Si3213   Si       0.53026    0.18758    0.71480    1.000
    N3214    N        0.56614    0.20155    0.73312    1.000
    Si3215   Si       0.59515    0.23374    0.71782    1.000
    N3216    N        0.62356    0.22287    0.74911    1.000
    Si3217   Si       0.69977    0.23768    0.71478    1.000
    N3218    N        0.68602    0.21282    0.74747    1.000
    Si3219   Si       0.65112    0.18464    0.75473    1.000
    Si3220   Si       0.65853    0.24708    0.75858    1.000
    N3221    N        0.64374    0.16430    0.71628    1.000
    N3222    N        0.49928    0.03064    0.69943    1.000
    N3223    N        0.59434    0.03927    0.80453    1.000
    N3224    N        0.54150    0.07503    0.77055    1.000
    Si3225   Si       0.56203    0.06891    0.80861    1.000
    Si3226   Si       0.49865    0.07996    0.77276    1.000
    Si3227   Si       0.61122    0.02534    0.76629    1.000
    Si3228   Si       0.72907    0.05075    0.79272    1.000
    N3229    N        0.65462    0.10714    0.79680    1.000
    N3230    N        0.70798    0.08406    0.76969    1.000
    Si3231   Si       0.69792    0.12233    0.80028    1.000
    Si3232   Si       0.66292    0.08081    0.76541    1.000
    N3233    N        0.65371    0.03923    0.76717    1.000
    N3234    N        0.72466    0.02395    0.75825    1.000
    Si3235   Si       0.58907    0.13656    0.78693    1.000
    N3236    N        0.58197    0.23426    0.79818    1.000
    N3237    N        0.55756    0.16619    0.78919    1.000
    Si3238   Si       0.58569    0.19832    0.77391    1.000
    Si3239   Si       0.51557    0.15687    0.78946    1.000
    Si3240   Si       0.64846    0.16556    0.81801    1.000
    N3241    N        0.71364    0.22074    0.81070    1.000
    Si3242   Si       0.71436    0.19510    0.77723    1.000
    N3243    N        0.61802    0.16857    0.78539    1.000
    N3244    N        0.68190    0.16438    0.78848    1.000
    N3245    N        0.58729    0.10328    0.81489    1.000
    Si3246   Si       0.61204    0.26254    0.81346    1.000
    N3247    N        0.73899    0.13653    0.80019    1.000
    N3248    N        0.52976    0.06861    0.83504    1.000
    Si3249   Si       0.50202    0.03250    0.83080    1.000
    Si3250   Si       0.50916    0.08027    0.87283    1.000
    N3251    N        0.58828    0.02334    0.87601    1.000
    Si3252   Si       0.67715    0.23621    0.82691    1.000
    Si3253   Si       0.61553    0.02954    0.84148    1.000
    Si3254   Si       0.62859    0.09933    0.83321    1.000
    N3255    N        0.64499    0.06155    0.84742    1.000
    N3256    N        0.70109    0.09986    0.83985    1.000
    Si3257   Si       0.69000    0.05840    0.84995    1.000
    N3258    N        0.70683    0.02708    0.82246    1.000
    Si3259   Si       0.72008    0.11590    0.87442    1.000
    N3260    N        0.53640    0.23881    0.85946    1.000
    N3261    N        0.50112    0.15921    0.82917    1.000
    Si3262   Si       0.51051    0.15205    0.87193    1.000
    Si3263   Si       0.51883    0.23903    0.82182    1.000
    N3264    N        0.61060    0.25611    0.85728    1.000
    Si3265   Si       0.59703    0.14859    0.87445    1.000
    Si3266   Si       0.62939    0.21651    0.87196    1.000
    N3267    N        0.63068    0.14022    0.84828    1.000
    N3268    N        0.65132    0.20426    0.83905    1.000
    N3269    N        0.73495    0.15555    0.86436    1.000
    N3270    N        0.54036    0.08059    0.90393    1.000
    N3271    N        0.60023    0.11422    0.90131    1.000
    Si3272   Si       0.55841    0.11894    0.91282    1.000
    Si3273   Si       0.55475    0.04352    0.92058    1.000
    N3274    N        0.53198    0.01133    0.90515    1.000
    Si3275   Si       0.61255    0.01599    0.91194    1.000
    N3276    N        0.56910    0.25317    0.91309    1.000
    N3277    N        0.65371    0.01023    0.89910    1.000
    N3278    N        0.71261    0.04943    0.88777    1.000
    Si3279   Si       0.68243    0.03614    0.91631    1.000
    N3280    N        0.66342    0.07465    0.92314    1.000
    Si3281   Si       0.62271    0.08773    0.92697    1.000
    Si3282   Si       0.71591    0.17310    0.90122    1.000
    N3283    N        0.49629    0.18640    0.89063    1.000
    Si3284   Si       0.58351    0.21204    0.92529    1.000
    N3285    N        0.59960    0.18970    0.88886    1.000
    Si3286   Si       0.52285    0.21928    0.89948    1.000
    N3287    N        0.54391    0.19742    0.93201    1.000
    N3288    N        0.55268    0.14582    0.87893    1.000
    N3289    N        0.71620    0.21247    0.88164    1.000
    N3290    N        0.69301    0.13197    0.90533    1.000
    Si3291   Si       0.69095    0.24348    0.89885    1.000
    N3292    N        0.65030    0.23187    0.90830    1.000
    N3293    N        0.48958    0.24170    0.91915    1.000
    N3294    N        0.59795    0.05187    0.93426    1.000
    N3295    N        0.54087    0.04553    0.96276    1.000
    Si3296   Si       0.49957    0.05039    0.97420    1.000
    Si3297   Si       0.58301    0.05094    0.97829    1.000
    Si3298   Si       0.57246    0.12442    0.99188    1.000
    N3299    N        0.49707    0.08931    0.99235    1.000
    N3300    N        0.63852    0.12013    0.95469    1.000
    N3301    N        0.70085    0.02489    0.95384    1.000
    Si3302   Si       0.67986    0.11225    0.94048    1.000
    N3303    N        0.70254    0.13030    0.97380    1.000
    Si3304   Si       0.68573    0.04275    0.98994    1.000
    N3305    N        0.48926    0.16400    0.97598    1.000
    N3306    N        0.55285    0.13322    0.95404    1.000
    Si3307   Si       0.53221    0.17052    0.96535    1.000
    N3308    N        0.49551    0.22891    0.99093    1.000
    N3309    N        0.61310    0.20157    0.95592    1.000
    Si3310   Si       0.65459    0.21122    0.94696    1.000
    N3311    N        0.66349    0.24029    0.97780    1.000
    N3312    N        0.69166    0.19033    0.94104    1.000
    Si3313   Si       0.72017    0.16652    0.96280    1.000
    N3314    N        0.59537    0.01198    0.99281    1.000
    Si3315   Si       0.59787    0.19305    0.99637    1.000
    N3316    N        0.53358    0.31934    0.01683    1.000
    Si3317   Si       0.51586    0.27914    0.00860    1.000
    N3318    N        0.55527    0.36979    0.05248    1.000
    Si3319   Si       0.58973    0.50883    0.01405    1.000
    N3320    N        0.61263    0.29333    0.03406    1.000
    N3321    N        0.67692    0.26147    0.04319    1.000
    N3322    N        0.66288    0.33127    0.03263    1.000
    Si3323   Si       0.70439    0.32830    0.01539    1.000
    Si3324   Si       0.62896    0.32200    0.00530    1.000
    Si3325   Si       0.72094    0.26831    0.04575    1.000
    N3326    N        0.73124    0.30996    0.04580    1.000
    N3327    N        0.72332    0.36321    0.99831    1.000
    N3328    N        0.50593    0.39970    0.01765    1.000
    Si3329   Si       0.52240    0.49081    0.00812    1.000
    N3330    N        0.50846    0.46498    0.04214    1.000
    Si3331   Si       0.55174    0.39336    0.01686    1.000
    N3332    N        0.58493    0.42073    0.01908    1.000
    Si3333   Si       0.73600    0.40108    0.01079    1.000
    Si3334   Si       0.62485    0.40279    0.00739    1.000
    N3335    N        0.65672    0.40248    0.03559    1.000
    Si3336   Si       0.72358    0.48683    0.03353    1.000
    N3337    N        0.68725    0.46210    0.02551    1.000
    N3338    N        0.61192    0.36125    0.99832    1.000
    N3339    N        0.56418    0.30645    0.07891    1.000
    N3340    N        0.49742    0.32491    0.07740    1.000
    Si3341   Si       0.53494    0.33265    0.05876    1.000
    Si3342   Si       0.59073    0.44696    0.05471    1.000
    N3343    N        0.49292    0.41582    0.08808    1.000
    Si3344   Si       0.65550    0.36579    0.06266    1.000
    N3345    N        0.65300    0.30521    0.09694    1.000
    N3346    N        0.68855    0.36205    0.09165    1.000
    Si3347   Si       0.65111    0.29302    0.05543    1.000
    Si3348   Si       0.68750    0.32698    0.11429    1.000
    Si3349   Si       0.57848    0.38536    0.08420    1.000
    Si3350   Si       0.55874    0.50598    0.08916    1.000
    N3351    N        0.52675    0.48090    0.10274    1.000
    Si3352   Si       0.52480    0.44631    0.07818    1.000
    N3353    N        0.56373    0.42836    0.08352    1.000
    N3354    N        0.62945    0.45427    0.07300    1.000
    Si3355   Si       0.71318    0.39647    0.09096    1.000
    Si3356   Si       0.66840    0.43871    0.05451    1.000
    N3357    N        0.62239    0.38509    0.08560    1.000
    N3358    N        0.71240    0.49979    0.07388    1.000
    Si3359   Si       0.63711    0.42205    0.10567    1.000
    Si3360   Si       0.62832    0.49714    0.09105    1.000
    N3361    N        0.67966    0.42686    0.09596    1.000
    N3362    N        0.58055    0.48843    0.05071    1.000
    N3363    N        0.73252    0.41099    0.05233    1.000
    Si3364   Si       0.57857    0.27353    0.05494    1.000
    N3365    N        0.56802    0.27653    0.13547    1.000
    N3366    N        0.60492    0.32599    0.14878    1.000
    Si3367   Si       0.56963    0.31853    0.12146    1.000
    Si3368   Si       0.54303    0.37714    0.15120    1.000
    N3369    N        0.52825    0.34070    0.16612    1.000
    Si3370   Si       0.63728    0.30020    0.13765    1.000
    N3371    N        0.67083    0.32313    0.15373    1.000
    N3372    N        0.72958    0.31802    0.12160    1.000
    N3373    N        0.64018    0.25717    0.14767    1.000
    N3374    N        0.59173    0.50712    0.11683    1.000
    N3375    N        0.51009    0.40284    0.15160    1.000
    Si3376   Si       0.64169    0.47080    0.15651    1.000
    N3377    N        0.65423    0.50019    0.12653    1.000
    N3378    N        0.71867    0.50110    0.14537    1.000
    N3379    N        0.62140    0.43461    0.14269    1.000
    N3380    N        0.55771    0.36195    0.11378    1.000
    N3381    N        0.54087    0.28923    0.19942    1.000
    N3382    N        0.58324    0.33772    0.21474    1.000
    Si3383   Si       0.53993    0.33533    0.20576    1.000
    Si3384   Si       0.60744    0.35383    0.18123    1.000
    Si3385   Si       0.71876    0.27894    0.20552    1.000
    N3386    N        0.64648    0.36506    0.19890    1.000
    Si3387   Si       0.68261    0.33852    0.19182    1.000
    N3388    N        0.68599    0.30304    0.21884    1.000
    N3389    N        0.71771    0.36144    0.18113    1.000
    N3390    N        0.72354    0.48136    0.21825    1.000
    Si3391   Si       0.55503    0.48414    0.20628    1.000
    N3392    N        0.55127    0.44626    0.18548    1.000
    Si3393   Si       0.50754    0.43801    0.17944    1.000
    N3394    N        0.61103    0.48716    0.18095    1.000
    Si3395   Si       0.59047    0.42930    0.17398    1.000
    Si3396   Si       0.71745    0.46950    0.17705    1.000
    Si3397   Si       0.68397    0.46316    0.22598    1.000
    N3398    N        0.67577    0.46213    0.18175    1.000
    N3399    N        0.61777    0.43082    0.21177    1.000
    Si3400   Si       0.61896    0.47294    0.22264    1.000
    Si3401   Si       0.64316    0.39953    0.22500    1.000
    N3402    N        0.48783    0.42781    0.21750    1.000
    Si3403   Si       0.73882    0.39372    0.20077    1.000
    N3404    N        0.58135    0.38763    0.16944    1.000
    N3405    N        0.55715    0.30304    0.26559    1.000
    Si3406   Si       0.59643    0.31337    0.24852    1.000
    Si3407   Si       0.52986    0.27936    0.24083    1.000
    N3408    N        0.61320    0.27033    0.23769    1.000
    N3409    N        0.48912    0.29070    0.24524    1.000
    N3410    N        0.48862    0.40121    0.28883    1.000
    Si3411   Si       0.65451    0.28707    0.24461    1.000
    N3412    N        0.63691    0.32074    0.26604    1.000
    Si3413   Si       0.64223    0.35817    0.28446    1.000
    N3414    N        0.68185    0.37546    0.28647    1.000
    Si3415   Si       0.54678    0.46264    0.26212    1.000
    N3416    N        0.54927    0.41874    0.25604    1.000
    Si3417   Si       0.50753    0.39998    0.24858    1.000
    N3418    N        0.58173    0.47880    0.24141    1.000
    Si3419   Si       0.57907    0.39660    0.27736    1.000
    N3420    N        0.52333    0.48727    0.23497    1.000
    Si3421   Si       0.64299    0.49971    0.28428    1.000
    N3422    N        0.61902    0.38775    0.25972    1.000
    N3423    N        0.67906    0.41993    0.23622    1.000
    Si3424   Si       0.70477    0.40659    0.26698    1.000
    N3425    N        0.65190    0.48354    0.24518    1.000
    N3426    N        0.51255    0.35708    0.23196    1.000
    N3427    N        0.54660    0.29279    0.33056    1.000
    Si3428   Si       0.54491    0.32434    0.30121    1.000
    N3429    N        0.56994    0.36012    0.30242    1.000
    N3430    N        0.50495    0.33891    0.30514    1.000
    Si3431   Si       0.51047    0.27208    0.34278    1.000
    Si3432   Si       0.59746    0.37682    0.33364    1.000
    N3433    N        0.63728    0.35823    0.32887    1.000
    N3434    N        0.65668    0.29084    0.33378    1.000
    N3435    N        0.72202    0.26922    0.31845    1.000
    Si3436   Si       0.67780    0.37902    0.32914    1.000
    Si3437   Si       0.67996    0.26097    0.31365    1.000
    Si3438   Si       0.55966    0.44761    0.32956    1.000
    N3439    N        0.59071    0.41842    0.31618    1.000
    N3440    N        0.53352    0.46834    0.30266    1.000
    N3441    N        0.57994    0.48611    0.33914    1.000
    Si3442   Si       0.53284    0.50171    0.33363    1.000
    N3443    N        0.71290    0.43354    0.30020    1.000
    N3444    N        0.64395    0.46549    0.31095    1.000
    Si3445   Si       0.62440    0.43791    0.33787    1.000
    Si3446   Si       0.68264    0.45190    0.32715    1.000
    N3447    N        0.66342    0.41682    0.34449    1.000
    Si3448   Si       0.57197    0.28129    0.36401    1.000
    N3449    N        0.59464    0.31641    0.36566    1.000
    N3450    N        0.52904    0.34001    0.37986    1.000
    Si3451   Si       0.50062    0.36973    0.39586    1.000
    Si3452   Si       0.57127    0.34395    0.38840    1.000
    N3453    N        0.54706    0.27869    0.40003    1.000
    Si3454   Si       0.51159    0.30903    0.40519    1.000
    Si3455   Si       0.69598    0.34882    0.38941    1.000
    N3456    N        0.65181    0.33187    0.39612    1.000
    Si3457   Si       0.63861    0.32151    0.35459    1.000
    N3458    N        0.70857    0.31011    0.40399    1.000
    N3459    N        0.70925    0.35870    0.34978    1.000
    N3460    N        0.58765    0.38306    0.37491    1.000
    Si3461   Si       0.59925    0.48864    0.38114    1.000
    N3462    N        0.52202    0.49741    0.38092    1.000
    Si3463   Si       0.57650    0.42124    0.39023    1.000
    Si3464   Si       0.50650    0.45624    0.37995    1.000
    N3465    N        0.54331    0.43539    0.36618    1.000
    N3466    N        0.68752    0.48441    0.35759    1.000
    N3467    N        0.61420    0.44655    0.37984    1.000
    Si3468   Si       0.69874    0.48580    0.40037    1.000
    N3469    N        0.52291    0.31478    0.44795    1.000
    N3470    N        0.58463    0.34588    0.42895    1.000
    Si3471   Si       0.54721    0.34950    0.45161    1.000
    Si3472   Si       0.62742    0.35636    0.42323    1.000
    N3473    N        0.65922    0.28001    0.44907    1.000
    N3474    N        0.70922    0.38195    0.41291    1.000
    N3475    N        0.64651    0.35047    0.46309    1.000
    Si3476   Si       0.66863    0.29054    0.40878    1.000
    N3477    N        0.52444    0.38070    0.43170    1.000
    N3478    N        0.57468    0.50006    0.41613    1.000
    Si3479   Si       0.58329    0.47042    0.44774    1.000
    Si3480   Si       0.52663    0.42243    0.44507    1.000
    N3481    N        0.56554    0.43564    0.42939    1.000
    N3482    N        0.49368    0.44014    0.41934    1.000
    N3483    N        0.63575    0.40022    0.42776    1.000
    Si3484   Si       0.64957    0.50181    0.45454    1.000
    N3485    N        0.62574    0.46783    0.44135    1.000
    Si3486   Si       0.71047    0.41963    0.43613    1.000
    Si3487   Si       0.64357    0.44042    0.41365    1.000
    N3488    N        0.68576    0.44882    0.41691    1.000
    Si3489   Si       0.73709    0.31475    0.43657    1.000
    N3490    N        0.54436    0.35723    0.49562    1.000
    Si3491   Si       0.52217    0.28498    0.47798    1.000
    Si3492   Si       0.58492    0.26474    0.51020    1.000
    N3493    N        0.51657    0.29917    0.52058    1.000
    N3494    N        0.55881    0.26453    0.47568    1.000
    Si3495   Si       0.73023    0.32452    0.50783    1.000
    Si3496   Si       0.66660    0.31359    0.47523    1.000
    N3497    N        0.65531    0.31165    0.51751    1.000
    N3498    N        0.62478    0.48064    0.52753    1.000
    N3499    N        0.70892    0.32378    0.46921    1.000
    N3500    N        0.57315    0.47680    0.48682    1.000
    N3501    N        0.51816    0.42990    0.48621    1.000
    Si3502   Si       0.54609    0.45259    0.51014    1.000
    Si3503   Si       0.59792    0.50643    0.50711    1.000
    N3504    N        0.67727    0.48656    0.48782    1.000
    Si3505   Si       0.65407    0.45557    0.50661    1.000
    Si3506   Si       0.70956    0.40633    0.51337    1.000
    N3507    N        0.62909    0.42102    0.49804    1.000
    N3508    N        0.69125    0.40541    0.47369    1.000
    Si3509   Si       0.55071    0.32667    0.52549    1.000
    Si3510   Si       0.53032    0.38737    0.52653    1.000
    Si3511   Si       0.64874    0.39440    0.46950    1.000
    N3512    N        0.48915    0.25828    0.46923    1.000
    N3513    N        0.53731    0.35558    0.55804    1.000
    Si3514   Si       0.49403    0.28209    0.55282    1.000
    N3515    N        0.68056    0.43242    0.53381    1.000
    N3516    N        0.58728    0.30521    0.52504    1.000
    N3517    N        0.49209    0.31192    0.58475    1.000
    N3518    N        0.61673    0.36902    0.54176    1.000
    N3519    N        0.71388    0.29167    0.52937    1.000
    Si3520   Si       0.67865    0.30205    0.55659    1.000
    Si3521   Si       0.62163    0.32556    0.53633    1.000
    N3522    N        0.66694    0.26324    0.57301    1.000
    N3523    N        0.63885    0.31812    0.57750    1.000
    Si3524   Si       0.61412    0.47553    0.56822    1.000
    N3525    N        0.48726    0.39608    0.53136    1.000
    Si3526   Si       0.60508    0.40956    0.53274    1.000
    N3527    N        0.52407    0.47819    0.53656    1.000
    Si3528   Si       0.54893    0.49916    0.56776    1.000
    N3529    N        0.56237    0.41601    0.53088    1.000
    Si3530   Si       0.66575    0.42078    0.57177    1.000
    N3531    N        0.62333    0.43200    0.56964    1.000
    N3532    N        0.72960    0.36571    0.52234    1.000
    N3533    N        0.59452    0.28936    0.61470    1.000
    N3534    N        0.54259    0.33541    0.62697    1.000
    Si3535   Si       0.51676    0.34708    0.59401    1.000
    Si3536   Si       0.58716    0.32951    0.62343    1.000
    N3537    N        0.60649    0.36740    0.61490    1.000
    Si3538   Si       0.63646    0.27787    0.60315    1.000
    Si3539   Si       0.70142    0.35834    0.60856    1.000
    N3540    N        0.70622    0.31912    0.58982    1.000
    Si3541   Si       0.71447    0.47769    0.60351    1.000
    Si3542   Si       0.66085    0.44686    0.63650    1.000
    Si3543   Si       0.58025    0.45215    0.62482    1.000
    N3544    N        0.55980    0.41629    0.63366    1.000
    N3545    N        0.57495    0.47092    0.58586    1.000
    N3546    N        0.61890    0.43634    0.63820    1.000
    Si3547   Si       0.72517    0.41875    0.63872    1.000
    N3548    N        0.73460    0.45965    0.63773    1.000
    N3549    N        0.68342    0.44896    0.59845    1.000
    N3550    N        0.63735    0.50496    0.58823    1.000
    N3551    N        0.73606    0.38715    0.61053    1.000
    Si3552   Si       0.57194    0.26228    0.64205    1.000
    N3553    N        0.67170    0.38061    0.58418    1.000
    Si3554   Si       0.63237    0.36149    0.58266    1.000
    N3555    N        0.54575    0.28457    0.66865    1.000
    N3556    N        0.59531    0.32458    0.66761    1.000
    Si3557   Si       0.55083    0.33181    0.67125    1.000
    N3558    N        0.55891    0.37627    0.68208    1.000
    N3559    N        0.68475    0.41611    0.65388    1.000
    Si3560   Si       0.62178    0.34256    0.69538    1.000
    N3561    N        0.72215    0.29731    0.68076    1.000
    Si3562   Si       0.68279    0.31188    0.66670    1.000
    N3563    N        0.68897    0.35158    0.64896    1.000
    Si3564   Si       0.67333    0.38118    0.67851    1.000
    N3565    N        0.62884    0.38236    0.67920    1.000
    N3566    N        0.65698    0.28691    0.64282    1.000
    Si3567   Si       0.60061    0.39658    0.64693    1.000
    N3568    N        0.49299    0.39212    0.66396    1.000
    Si3569   Si       0.52958    0.47825    0.67464    1.000
    N3570    N        0.56982    0.48319    0.65379    1.000
    Si3571   Si       0.53331    0.40640    0.66626    1.000
    N3572    N        0.53295    0.43918    0.69384    1.000
    Si3573   Si       0.60488    0.50063    0.67290    1.000
    N3574    N        0.49020    0.48039    0.65102    1.000
    N3575    N        0.67069    0.48641    0.64933    1.000
    Si3576   Si       0.67228    0.49029    0.69289    1.000
    Si3577   Si       0.73579    0.45895    0.68320    1.000
    N3578    N        0.66239    0.32855    0.70270    1.000
    N3579    N        0.63038    0.47762    0.69877    1.000
    N3580    N        0.60000    0.34714    0.73126    1.000
    Si3581   Si       0.56128    0.36491    0.72392    1.000
    N3582    N        0.57095    0.26837    0.73382    1.000
    Si3583   Si       0.53853    0.28400    0.71061    1.000
    N3584    N        0.53438    0.32920    0.71628    1.000
    N3585    N        0.49782    0.27307    0.72246    1.000
    Si3586   Si       0.49215    0.33808    0.73072    1.000
    Si3587   Si       0.68175    0.31715    0.73946    1.000
    N3588    N        0.68262    0.27357    0.73567    1.000
    N3589    N        0.72257    0.32860    0.74658    1.000
    Si3590   Si       0.68983    0.43104    0.73783    1.000
    N3591    N        0.55579    0.39695    0.75227    1.000
    N3592    N        0.57886    0.46715    0.73926    1.000
    Si3593   Si       0.54455    0.43885    0.73667    1.000
    Si3594   Si       0.73598    0.38597    0.70713    1.000
    N3595    N        0.64985    0.44473    0.75627    1.000
    N3596    N        0.69442    0.39315    0.71580    1.000
    Si3597   Si       0.62132    0.47133    0.74041    1.000
    N3598    N        0.70101    0.46290    0.70867    1.000
    N3599    N        0.51621    0.46459    0.75842    1.000
    N3600    N        0.62920    0.51111    0.75901    1.000
    N3601    N        0.59393    0.29776    0.79306    1.000
    N3602    N        0.59990    0.36108    0.80237    1.000
    Si3603   Si       0.56618    0.26795    0.77594    1.000
    Si3604   Si       0.49771    0.34703    0.80971    1.000
    N3605    N        0.52502    0.26496    0.78967    1.000
    Si3606   Si       0.61292    0.33273    0.77102    1.000
    N3607    N        0.53361    0.37563    0.81734    1.000
    N3608    N        0.72799    0.50740    0.79318    1.000
    N3609    N        0.66454    0.48797    0.81400    1.000
    Si3610   Si       0.66879    0.30215    0.80582    1.000
    N3611    N        0.65576    0.32440    0.77142    1.000
    Si3612   Si       0.73448    0.33561    0.78847    1.000
    N3613    N        0.71101    0.31047    0.81426    1.000
    N3614    N        0.65315    0.26065    0.79986    1.000
    N3615    N        0.73460    0.37488    0.80844    1.000
    Si3616   Si       0.56646    0.38766    0.79322    1.000
    Si3617   Si       0.52571    0.49924    0.78462    1.000
    N3618    N        0.58380    0.42056    0.81404    1.000
    N3619    N        0.49305    0.32244    0.77296    1.000
    N3620    N        0.70664    0.43136    0.77889    1.000
    Si3621   Si       0.66839    0.44687    0.79506    1.000
    Si3622   Si       0.49140    0.27948    0.76552    1.000
    N3623    N        0.55136    0.48725    0.81793    1.000
    N3624    N        0.57300    0.30695    0.85986    1.000
    Si3625   Si       0.60042    0.32876    0.83326    1.000
    N3626    N        0.49869    0.32640    0.84762    1.000
    Si3627   Si       0.56952    0.26508    0.87084    1.000
    Si3628   Si       0.53658    0.32963    0.87139    1.000
    N3629    N        0.61790    0.36874    0.86312    1.000
    N3630    N        0.64005    0.31373    0.83863    1.000
    Si3631   Si       0.65350    0.34466    0.86743    1.000
    N3632    N        0.69100    0.36597    0.86997    1.000
    Si3633   Si       0.64158    0.28366    0.87009    1.000
    Si3634   Si       0.73298    0.36792    0.85186    1.000
    N3635    N        0.67797    0.26318    0.86294    1.000
    Si3636   Si       0.56750    0.45132    0.83760    1.000
    N3637    N        0.59694    0.47165    0.86082    1.000
    Si3638   Si       0.52996    0.39480    0.85601    1.000
    N3639    N        0.53802    0.43744    0.86518    1.000
    N3640    N        0.48880    0.39247    0.87148    1.000
    N3641    N        0.64857    0.42669    0.82907    1.000
    Si3642   Si       0.70390    0.50240    0.82887    1.000
    Si3643   Si       0.64292    0.46657    0.85156    1.000
    Si3644   Si       0.61848    0.39641    0.82531    1.000
    N3645    N        0.72992    0.46954    0.84078    1.000
    N3646    N        0.52231    0.30145    0.89999    1.000
    Si3647   Si       0.54646    0.28609    0.93148    1.000
    N3648    N        0.55242    0.36812    0.88276    1.000
    Si3649   Si       0.59222    0.38179    0.89788    1.000
    N3650    N        0.73367    0.38465    0.92731    1.000
    N3651    N        0.61514    0.36642    0.93327    1.000
    N3652    N        0.64648    0.31568    0.89872    1.000
    N3653    N        0.70732    0.26716    0.93033    1.000
    Si3654   Si       0.64447    0.33455    0.93758    1.000
    N3655    N        0.55014    0.48012    0.91383    1.000
    N3656    N        0.60050    0.42278    0.91158    1.000
    Si3657   Si       0.58999    0.46373    0.90396    1.000
    Si3658   Si       0.51663    0.47052    0.88847    1.000
    N3659    N        0.60633    0.49315    0.93147    1.000
    Si3660   Si       0.69521    0.38157    0.91002    1.000
    Si3661   Si       0.63177    0.40659    0.93627    1.000
    Si3662   Si       0.68321    0.45441    0.91727    1.000
    N3663    N        0.72638    0.45233    0.91231    1.000
    N3664    N        0.66766    0.48037    0.88504    1.000
    N3665    N        0.66903    0.41529    0.91323    1.000
    Si3666   Si       0.58546    0.35727    0.96516    1.000
    N3667    N        0.51832    0.28422    0.96524    1.000
    Si3668   Si       0.52727    0.32987    0.97532    1.000
    N3669    N        0.56584    0.32100    0.95114    1.000
    N3670    N        0.54728    0.37347    0.97989    1.000
    N3671    N        0.64327    0.42302    0.97379    1.000
    N3672    N        0.64337    0.30434    0.96902    1.000
    Si3673   Si       0.72473    0.34991    0.95584    1.000
    Si3674   Si       0.67734    0.27751    0.96258    1.000
    N3675    N        0.71083    0.29975    0.98471    1.000
    Si3676   Si       0.74042    0.28257    0.95527    1.000
    N3677    N        0.68486    0.35024    0.93990    1.000
    Si3678   Si       0.50547    0.38745    0.97705    1.000
    N3679    N        0.55916    0.49737    0.98536    1.000
    N3680    N        0.50514    0.41265    0.94410    1.000
    N3681    N        0.49132    0.48608    0.97845    1.000
    Si3682   Si       0.56579    0.50668    0.94444    1.000
    N3683    N        0.71818    0.42669    0.98012    1.000
    N3684    N        0.68191    0.47768    0.95405    1.000
    Si3685   Si       0.64354    0.50554    0.95238    1.000
    Si3686   Si       0.67859    0.44633    0.98438    1.000
    Si3687   Si       0.72167    0.49993    0.95845    1.000
    N3688    N        0.48725    0.34801    0.96933    1.000
    N3689    N        0.58279    0.54919    0.02641    1.000
    N3690    N        0.51108    0.53027    0.02881    1.000
    N3691    N        0.52786    0.59431    0.03848    1.000
    Si3692   Si       0.55425    0.62182    0.01778    1.000
    Si3693   Si       0.54341    0.55422    0.04309    1.000
    N3694    N        0.63546    0.75768    0.00560    1.000
    Si3695   Si       0.61926    0.56079    0.04407    1.000
    Si3696   Si       0.68030    0.59741    0.03332    1.000
    N3697    N        0.64008    0.59147    0.01918    1.000
    N3698    N        0.70001    0.56091    0.03974    1.000
    N3699    N        0.72065    0.51395    0.99933    1.000
    Si3700   Si       0.73410    0.55230    0.01559    1.000
    N3701    N        0.69841    0.62992    0.00984    1.000
    N3702    N        0.58638    0.63807    0.04335    1.000
    Si3703   Si       0.50957    0.72626    0.01518    1.000
    N3704    N        0.52518    0.65310    0.00518    1.000
    Si3705   Si       0.61299    0.67201    0.03620    1.000
    N3706    N        0.65281    0.66977    0.04539    1.000
    Si3707   Si       0.73565    0.64013    0.03588    1.000
    Si3708   Si       0.66887    0.66205    0.00520    1.000
    N3709    N        0.70281    0.75077    0.01770    1.000
    N3710    N        0.54575    0.54617    0.08670    1.000
    Si3711   Si       0.59391    0.62033    0.08262    1.000
    N3712    N        0.55502    0.61670    0.10158    1.000
    Si3713   Si       0.49119    0.59859    0.06136    1.000
    N3714    N        0.49058    0.58311    0.10063    1.000
    Si3715   Si       0.53322    0.57984    0.10988    1.000
    N3716    N        0.61727    0.58343    0.07987    1.000
    N3717    N        0.64156    0.52632    0.06094    1.000
    Si3718   Si       0.68330    0.53351    0.06960    1.000
    N3719    N        0.67910    0.61409    0.07447    1.000
    Si3720   Si       0.71440    0.59050    0.08711    1.000
    Si3721   Si       0.65428    0.58904    0.10041    1.000
    N3722    N        0.68703    0.55955    0.10526    1.000
    N3723    N        0.59366    0.70313    0.06072    1.000
    Si3724   Si       0.56947    0.73883    0.06966    1.000
    Si3725   Si       0.59665    0.68937    0.10468    1.000
    N3726    N        0.52865    0.73302    0.05490    1.000
    N3727    N        0.67246    0.73364    0.08405    1.000
    N3728    N        0.61633    0.65170    0.10333    1.000
    N3729    N        0.71808    0.67425    0.05645    1.000
    Si3730   Si       0.68283    0.65757    0.07483    1.000
    Si3731   Si       0.69847    0.70954    0.11225    1.000
    N3732    N        0.53633    0.57225    0.15246    1.000
    Si3733   Si       0.58927    0.51779    0.15830    1.000
    N3734    N        0.59948    0.55936    0.16729    1.000
    N3735    N        0.57522    0.62957    0.16470    1.000
    N3736    N        0.73545    0.57012    0.16903    1.000
    Si3737   Si       0.68631    0.52942    0.13745    1.000
    N3738    N        0.64549    0.60787    0.13803    1.000
    Si3739   Si       0.73023    0.61329    0.16166    1.000
    N3740    N        0.73416    0.61172    0.11886    1.000
    N3741    N        0.62039    0.71243    0.13198    1.000
    N3742    N        0.56332    0.74935    0.11581    1.000
    Si3743   Si       0.55704    0.71811    0.14740    1.000
    N3744    N        0.55737    0.68396    0.12366    1.000
    N3745    N        0.52181    0.73803    0.15974    1.000
    Si3746   Si       0.54577    0.64374    0.13535    1.000
    N3747    N        0.50429    0.64597    0.14467    1.000
    Si3748   Si       0.64643    0.65119    0.13397    1.000
    Si3749   Si       0.64943    0.74129    0.12132    1.000
    N3750    N        0.68219    0.73000    0.14700    1.000
    N3751    N        0.68131    0.66954    0.11520    1.000
    N3752    N        0.48787    0.52793    0.13909    1.000
    Si3753   Si       0.51604    0.53836    0.17097    1.000
    N3754    N        0.54892    0.58689    0.21698    1.000
    Si3755   Si       0.56690    0.58755    0.17808    1.000
    N3756    N        0.55063    0.51267    0.17574    1.000
    N3757    N        0.69458    0.61421    0.18879    1.000
    N3758    N        0.62406    0.60585    0.20557    1.000
    Si3759   Si       0.70115    0.56906    0.19536    1.000
    N3760    N        0.66892    0.55225    0.17094    1.000
    N3761    N        0.71252    0.54843    0.23085    1.000
    Si3762   Si       0.60357    0.64300    0.19331    1.000
    N3763    N        0.58001    0.70973    0.18345    1.000
    N3764    N        0.58192    0.65793    0.22795    1.000
    Si3765   Si       0.57480    0.70148    0.22730    1.000
    N3766    N        0.70850    0.75556    0.20307    1.000
    Si3767   Si       0.67344    0.65026    0.19966    1.000
    Si3768   Si       0.68550    0.72191    0.18957    1.000
    N3769    N        0.63838    0.66472    0.17562    1.000
    N3770    N        0.64283    0.72673    0.20355    1.000
    N3771    N        0.70179    0.68357    0.19705    1.000
    Si3772   Si       0.62219    0.70420    0.17408    1.000
    N3773    N        0.49111    0.54216    0.20692    1.000
    Si3774   Si       0.63622    0.58143    0.17207    1.000
    N3775    N        0.50501    0.55238    0.26779    1.000
    N3776    N        0.53459    0.62148    0.27331    1.000
    Si3777   Si       0.51873    0.59061    0.24882    1.000
    Si3778   Si       0.49578    0.51940    0.24146    1.000
    N3779    N        0.60691    0.61040    0.27398    1.000
    Si3780   Si       0.69351    0.55493    0.26980    1.000
    Si3781   Si       0.63825    0.61188    0.24548    1.000
    N3782    N        0.65750    0.57757    0.26137    1.000
    Si3783   Si       0.57411    0.63669    0.26624    1.000
    Si3784   Si       0.49905    0.71528    0.24233    1.000
    N3785    N        0.60393    0.71814    0.25709    1.000
    N3786    N        0.49497    0.67512    0.26191    1.000
    N3787    N        0.53969    0.72733    0.23283    1.000
    Si3788   Si       0.62589    0.74914    0.23723    1.000
    N3789    N        0.70825    0.68648    0.28752    1.000
    Si3790   Si       0.67358    0.66017    0.27916    1.000
    N3791    N        0.66043    0.64717    0.24159    1.000
    N3792    N        0.68147    0.52181    0.29466    1.000
    N3793    N        0.72287    0.57336    0.29227    1.000
    Si3794   Si       0.59355    0.52660    0.33071    1.000
    N3795    N        0.55179    0.54140    0.33228    1.000
    N3796    N        0.49696    0.58634    0.33002    1.000
    N3797    N        0.61369    0.53116    0.29282    1.000
    N3798    N        0.61988    0.57828    0.33505    1.000
    Si3799   Si       0.72159    0.61345    0.30945    1.000
    Si3800   Si       0.69564    0.51898    0.33387    1.000
    N3801    N        0.48984    0.51625    0.32595    1.000
    N3802    N        0.68161    0.63019    0.31065    1.000
    Si3803   Si       0.62485    0.57251    0.29276    1.000
    N3804    N        0.66862    0.74041    0.32464    1.000
    N3805    N        0.50192    0.66040    0.32800    1.000
    N3806    N        0.59291    0.72829    0.32743    1.000
    N3807    N        0.50015    0.73169    0.32975    1.000
    Si3808   Si       0.60186    0.69962    0.29711    1.000
    Si3809   Si       0.52445    0.66190    0.29171    1.000
    N3810    N        0.72870    0.72480    0.34384    1.000
    Si3811   Si       0.65237    0.65206    0.33673    1.000
    N3812    N        0.63983    0.67792    0.30301    1.000
    Si3813   Si       0.69214    0.70419    0.32581    1.000
    Si3814   Si       0.53396    0.57510    0.35295    1.000
    N3815    N        0.56809    0.67254    0.29113    1.000
    N3816    N        0.52681    0.56240    0.39385    1.000
    Si3817   Si       0.60339    0.60672    0.36336    1.000
    N3818    N        0.56058    0.60930    0.36353    1.000
    N3819    N        0.73808    0.60441    0.35028    1.000
    N3820    N        0.61988    0.52365    0.36841    1.000
    Si3821   Si       0.64316    0.55883    0.36761    1.000
    N3822    N        0.62960    0.58974    0.39614    1.000
    Si3823   Si       0.72594    0.56399    0.36153    1.000
    N3824    N        0.68503    0.55305    0.35956    1.000
    N3825    N        0.73518    0.55553    0.40238    1.000
    N3826    N        0.51443    0.63348    0.40174    1.000
    Si3827   Si       0.55262    0.64952    0.38482    1.000
    Si3828   Si       0.58161    0.71867    0.36850    1.000
    N3829    N        0.54934    0.68770    0.36844    1.000
    N3830    N        0.56529    0.75076    0.39160    1.000
    Si3831   Si       0.50778    0.69491    0.35250    1.000
    Si3832   Si       0.61481    0.66536    0.40183    1.000
    N3833    N        0.61588    0.64791    0.36219    1.000
    N3834    N        0.61195    0.70902    0.39565    1.000
    Si3835   Si       0.68643    0.67723    0.39996    1.000
    N3836    N        0.67861    0.67733    0.35833    1.000
    N3837    N        0.56681    0.59449    0.44248    1.000
    N3838    N        0.53330    0.53472    0.45359    1.000
    Si3839   Si       0.53017    0.59582    0.42040    1.000
    N3840    N        0.50838    0.59683    0.45706    1.000
    Si3841   Si       0.53849    0.52473    0.41335    1.000
    N3842    N        0.68939    0.59651    0.43334    1.000
    Si3843   Si       0.70064    0.55479    0.42986    1.000
    Si3844   Si       0.64808    0.60864    0.42901    1.000
    N3845    N        0.67691    0.51597    0.42428    1.000
    Si3846   Si       0.71210    0.63145    0.44869    1.000
    N3847    N        0.50342    0.75625    0.42129    1.000
    N3848    N        0.57615    0.65694    0.42300    1.000
    N3849    N        0.55648    0.71887    0.45578    1.000
    Si3850   Si       0.54360    0.74848    0.42820    1.000
    Si3851   Si       0.55649    0.67413    0.46040    1.000
    Si3852   Si       0.70522    0.75283    0.41394    1.000
    N3853    N        0.67851    0.71677    0.41303    1.000
    Si3854   Si       0.63663    0.72517    0.42626    1.000
    N3855    N        0.65427    0.65142    0.41708    1.000
    N3856    N        0.63197    0.69607    0.46057    1.000
    N3857    N        0.72178    0.65678    0.41484    1.000
    N3858    N        0.57369    0.58006    0.50314    1.000
    Si3859   Si       0.53658    0.57217    0.47839    1.000
    Si3860   Si       0.58875    0.60969    0.47592    1.000
    N3861    N        0.51581    0.56218    0.51989    1.000
    Si3862   Si       0.70866    0.51413    0.49768    1.000
    N3863    N        0.62204    0.52560    0.47588    1.000
    N3864    N        0.71764    0.54694    0.46932    1.000
    N3865    N        0.72571    0.60481    0.52174    1.000
    N3866    N        0.63028    0.62018    0.46625    1.000
    N3867    N        0.51395    0.73631    0.50675    1.000
    N3868    N        0.59205    0.73402    0.50977    1.000
    N3869    N        0.57597    0.64923    0.49297    1.000
    Si3870   Si       0.55448    0.75091    0.49319    1.000
    N3871    N        0.51468    0.66923    0.46818    1.000
    Si3872   Si       0.49323    0.70143    0.48836    1.000
    Si3873   Si       0.71579    0.68213    0.50513    1.000
    N3874    N        0.66377    0.74218    0.50628    1.000
    Si3875   Si       0.64639    0.65815    0.47961    1.000
    N3876    N        0.63428    0.66918    0.52041    1.000
    N3877    N        0.69137    0.65511    0.47932    1.000
    Si3878   Si       0.70240    0.75409    0.49246    1.000
    Si3879   Si       0.62829    0.73300    0.48569    1.000
    N3880    N        0.72937    0.71746    0.48085    1.000
    N3881    N        0.57273    0.52331    0.54082    1.000
    Si3882   Si       0.55449    0.56389    0.53825    1.000
    N3883    N        0.55319    0.57902    0.57781    1.000
    N3884    N        0.59794    0.62570    0.55740    1.000
    N3885    N        0.66551    0.59766    0.56087    1.000
    Si3886   Si       0.70243    0.57993    0.54813    1.000
    N3887    N        0.70801    0.53907    0.53532    1.000
    Si3888   Si       0.63601    0.62121    0.57944    1.000
    Si3889   Si       0.73540    0.52947    0.56925    1.000
    N3890    N        0.56388    0.75222    0.57793    1.000
    N3891    N        0.57595    0.68706    0.56042    1.000
    Si3892   Si       0.58993    0.72736    0.55303    1.000
    Si3893   Si       0.59415    0.65909    0.53161    1.000
    N3894    N        0.69835    0.69449    0.54336    1.000
    Si3895   Si       0.65576    0.69061    0.55101    1.000
    N3896    N        0.63215    0.72446    0.56660    1.000
    Si3897   Si       0.72589    0.68236    0.57700    1.000
    N3898    N        0.65137    0.66271    0.58606    1.000
    N3899    N        0.50301    0.59364    0.61951    1.000
    Si3900   Si       0.53185    0.56098    0.61211    1.000
    N3901    N        0.52342    0.51913    0.59829    1.000
    Si3902   Si       0.57397    0.61316    0.59402    1.000
    Si3903   Si       0.51805    0.63028    0.63663    1.000
    N3904    N        0.61417    0.60396    0.61113    1.000
    N3905    N        0.70424    0.52085    0.60223    1.000
    Si3906   Si       0.70630    0.56136    0.62134    1.000
    N3907    N        0.66283    0.56283    0.62411    1.000
    Si3908   Si       0.65938    0.51762    0.62268    1.000
    N3909    N        0.71490    0.60568    0.63422    1.000
    Si3910   Si       0.62322    0.57279    0.63910    1.000
    Si3911   Si       0.66556    0.68274    0.62048    1.000
    Si3912   Si       0.57164    0.75364    0.62529    1.000
    Si3913   Si       0.55650    0.68379    0.59949    1.000
    N3914    N        0.55279    0.64315    0.61493    1.000
    N3915    N        0.57535    0.70978    0.63150    1.000
    N3916    N        0.51901    0.70004    0.58683    1.000
    Si3917   Si       0.51981    0.74336    0.58493    1.000
    Si3918   Si       0.64299    0.74993    0.59827    1.000
    N3919    N        0.65147    0.72173    0.63005    1.000
    N3920    N        0.70749    0.68779    0.61572    1.000
    N3921    N        0.62097    0.52886    0.64669    1.000
    N3922    N        0.72745    0.57207    0.58444    1.000
    Si3923   Si       0.57781    0.56581    0.68531    1.000
    N3924    N        0.55892    0.56656    0.64653    1.000
    N3925    N        0.61617    0.58824    0.67996    1.000
    N3926    N        0.72568    0.54792    0.65911    1.000
    Si3927   Si       0.69473    0.62784    0.66606    1.000
    N3928    N        0.68624    0.59594    0.69368    1.000
    Si3929   Si       0.70322    0.55710    0.69550    1.000
    Si3930   Si       0.72569    0.75705    0.69280    1.000
    N3931    N        0.51976    0.63697    0.67770    1.000
    Si3932   Si       0.58066    0.71599    0.67479    1.000
    N3933    N        0.62351    0.70845    0.68715    1.000
    Si3934   Si       0.65812    0.73271    0.67162    1.000
    N3935    N        0.72534    0.65780    0.67770    1.000
    Si3936   Si       0.72040    0.69583    0.65629    1.000
    N3937    N        0.66274    0.65258    0.65239    1.000
    N3938    N        0.69829    0.72505    0.68214    1.000
    N3939    N        0.52615    0.50994    0.70351    1.000
    N3940    N        0.55381    0.58750    0.71479    1.000
    N3941    N        0.49686    0.56257    0.74270    1.000
    Si3942   Si       0.53991    0.56789    0.75149    1.000
    N3943    N        0.59201    0.52978    0.70573    1.000
    Si3944   Si       0.54955    0.62908    0.70680    1.000
    Si3945   Si       0.48898    0.53130    0.71414    1.000
    N3946    N        0.73136    0.66094    0.74349    1.000
    Si3947   Si       0.62277    0.67077    0.71091    1.000
    Si3948   Si       0.62920    0.53818    0.72427    1.000
    N3949    N        0.63534    0.57798    0.74088    1.000
    Si3950   Si       0.64525    0.60501    0.70769    1.000
    N3951    N        0.73199    0.54353    0.72887    1.000
    N3952    N        0.66922    0.53181    0.70384    1.000
    N3953    N        0.65524    0.64526    0.71990    1.000
    N3954    N        0.53444    0.65266    0.74078    1.000
    N3955    N        0.49737    0.73474    0.74746    1.000
    Si3956   Si       0.56439    0.68460    0.73639    1.000
    N3957    N        0.60606    0.68423    0.74741    1.000
    Si3958   Si       0.51095    0.73046    0.70621    1.000
    N3959    N        0.55065    0.71234    0.70750    1.000
    Si3960   Si       0.68773    0.65096    0.75004    1.000
    Si3961   Si       0.56184    0.50513    0.72748    1.000
    N3962    N        0.58424    0.65421    0.69858    1.000
    N3963    N        0.55650    0.58966    0.78478    1.000
    Si3964   Si       0.58733    0.61596    0.80115    1.000
    Si3965   Si       0.52976    0.61166    0.81050    1.000
    N3966    N        0.49372    0.61312    0.78734    1.000
    N3967    N        0.55004    0.52715    0.76298    1.000
    N3968    N        0.66335    0.55613    0.80197    1.000
    Si3969   Si       0.72186    0.60332    0.79819    1.000
    Si3970   Si       0.65432    0.59374    0.77830    1.000
    Si3971   Si       0.64041    0.52086    0.79822    1.000
    N3972    N        0.69108    0.61188    0.76914    1.000
    N3973    N        0.62830    0.62677    0.79399    1.000
    N3974    N        0.55876    0.71375    0.77429    1.000
    Si3975   Si       0.53977    0.68649    0.80537    1.000
    N3976    N        0.50031    0.68364    0.79303    1.000
    Si3977   Si       0.60117    0.71820    0.77417    1.000
    N3978    N        0.55670    0.64722    0.80637    1.000
    Si3979   Si       0.53491    0.74978    0.76679    1.000
    Si3980   Si       0.49974    0.64974    0.76489    1.000
    N3981    N        0.73802    0.71169    0.79807    1.000
    Si3982   Si       0.69341    0.71522    0.79980    1.000
    Si3983   Si       0.64257    0.66385    0.81079    1.000
    N3984    N        0.67801    0.67672    0.78515    1.000
    N3985    N        0.68101    0.74773    0.77499    1.000
    N3986    N        0.61984    0.70236    0.80860    1.000
    N3987    N        0.58597    0.59939    0.84279    1.000
    N3988    N        0.52065    0.60573    0.85185    1.000
    Si3989   Si       0.60012    0.56175    0.85588    1.000
    Si3990   Si       0.55929    0.61754    0.87052    1.000
    N3991    N        0.56700    0.53773    0.87277    1.000
    N3992    N        0.50579    0.51474    0.87689    1.000
    N3993    N        0.60881    0.53119    0.82530    1.000
    Si3994   Si       0.57827    0.50903    0.84334    1.000
    N3995    N        0.63997    0.56830    0.87078    1.000
    N3996    N        0.69671    0.59949    0.83489    1.000
    Si3997   Si       0.67495    0.56284    0.84421    1.000
    N3998    N        0.70000    0.53147    0.86042    1.000
    Si3999   Si       0.68399    0.62828    0.86315    1.000
    N4000    N        0.54422    0.71066    0.84123    1.000
    Si4001   Si       0.54286    0.75319    0.83773    1.000
    N4002    N        0.62326    0.71623    0.87613    1.000
    Si4003   Si       0.63661    0.73197    0.83818    1.000
    N4004    N        0.65352    0.65569    0.85345    1.000
    N4005    N        0.67889    0.71708    0.84106    1.000
    N4006    N        0.72553    0.64666    0.87455    1.000
    N4007    N        0.57271    0.60843    0.91087    1.000
    Si4008   Si       0.52969    0.54206    0.89681    1.000
    N4009    N        0.49687    0.57232    0.90303    1.000
    N4010    N        0.56436    0.66010    0.88022    1.000
    Si4011   Si       0.64939    0.58108    0.91234    1.000
    N4012    N        0.68109    0.60833    0.90093    1.000
    Si4013   Si       0.68839    0.51984    0.89956    1.000
    N4014    N        0.65922    0.53989    0.92578    1.000
    Si4015   Si       0.72020    0.62618    0.91146    1.000
    N4016    N        0.72361    0.52863    0.92827    1.000
    Si4017   Si       0.58420    0.65006    0.91784    1.000
    N4018    N        0.55436    0.72545    0.90875    1.000
    Si4019   Si       0.59192    0.74328    0.88740    1.000
    N4020    N        0.49813    0.68881    0.88637    1.000
    N4021    N        0.62308    0.66947    0.92298    1.000
    Si4022   Si       0.64799    0.68260    0.88854    1.000
    N4023    N        0.68545    0.69961    0.90806    1.000
    Si4024   Si       0.70177    0.72581    0.87726    1.000
    Si4025   Si       0.53942    0.69422    0.88108    1.000
    N4026    N        0.52196    0.60933    0.95435    1.000
    N4027    N        0.57810    0.60469    0.98504    1.000
    Si4028   Si       0.55823    0.58882    0.94726    1.000
    Si4029   Si       0.62033    0.61113    0.98528    1.000
    Si4030   Si       0.73011    0.61960    0.97941    1.000
    N4031    N        0.63452    0.59826    0.94856    1.000
    Si4032   Si       0.48903    0.58282    0.94469    1.000
    N4033    N        0.73755    0.57740    0.98134    1.000
    Si4034   Si       0.52266    0.65237    0.96177    1.000
    Si4035   Si       0.56533    0.71361    0.95146    1.000
    N4036    N        0.60622    0.72243    0.96104    1.000
    N4037    N        0.55861    0.67033    0.94576    1.000
    N4038    N        0.53997    0.72548    0.98461    1.000
    N4039    N        0.48929    0.74324    0.93651    1.000
    N4040    N        0.67075    0.69766    0.97930    1.000
    N4041    N        0.62269    0.65622    0.99202    1.000
    N4042    N        0.71996    0.64912    0.94730    1.000
    Si4043   Si       0.67132    0.74088    0.98974    1.000
    Si4044   Si       0.63017    0.68705    0.96070    1.000
    Si4045   Si       0.70364    0.68974    0.94703    1.000
    N4046    N        0.55111    0.54704    0.93685    1.000
    N4047    N        0.73644    0.71654    0.96345    1.000
    N4048    N        0.62825    0.50922    0.99265    1.000
    Si4049   Si       0.51307    0.80985    0.00877    1.000
    N4050    N        0.49983    0.84715    0.03014    1.000
    N4051    N        0.60244    0.82176    0.03072    1.000
    Si4052   Si       0.60642    0.87026    0.03742    1.000
    N4053    N        0.49404    0.76821    0.01400    1.000
    N4054    N        0.53421    0.79843    0.04894    1.000
    Si4055   Si       0.62367    0.78413    0.03715    1.000
    Si4056   Si       0.67370    0.83685    0.03436    1.000
    N4057    N        0.71586    0.84675    0.04526    1.000
    N4058    N        0.66292    0.79801    0.04979    1.000
    Si4059   Si       0.71997    0.86444    0.99766    1.000
    N4060    N        0.64842    0.86828    0.04946    1.000
    N4061    N        0.52280    0.90793    0.03645    1.000
    Si4062   Si       0.53034    0.94711    0.02836    1.000
    N4063    N        0.48857    0.96312    0.02621    1.000
    N4064    N        0.66743    0.93344    0.03248    1.000
    Si4065   Si       0.70773    0.94167    0.01941    1.000
    N4066    N        0.72130    0.97750    0.03863    1.000
    N4067    N        0.72673    0.90396    0.01755    1.000
    Si4068   Si       0.62727    0.94224    0.02406    1.000
    N4069    N        0.61623    0.97686    0.04771    1.000
    N4070    N        0.51501    0.86917    0.10217    1.000
    N4071    N        0.59483    0.77462    0.06791    1.000
    N4072    N        0.49657    0.77474    0.10376    1.000
    Si4073   Si       0.57024    0.81642    0.06369    1.000
    Si4074   Si       0.52548    0.87122    0.05931    1.000
    N4075    N        0.56838    0.81679    0.10773    1.000
    Si4076   Si       0.50428    0.76925    0.06035    1.000
    N4077    N        0.56651    0.86058    0.05565    1.000
    Si4078   Si       0.73400    0.88562    0.05817    1.000
    N4079    N        0.72609    0.77833    0.07931    1.000
    Si4080   Si       0.69124    0.76559    0.05868    1.000
    N4081    N        0.55071    0.96296    0.06103    1.000
    Si4082   Si       0.58930    0.94989    0.06954    1.000
    Si4083   Si       0.52067    0.97868    0.08911    1.000
    Si4084   Si       0.73831    0.81822    0.07034    1.000
    N4085    N        0.70709    0.90852    0.08253    1.000
    Si4086   Si       0.66417    0.90509    0.06905    1.000
    N4087    N        0.51044    0.94214    0.11144    1.000
    N4088    N        0.60290    0.94722    0.11142    1.000
    Si4089   Si       0.59194    0.78115    0.11314    1.000
    N4090    N        0.60488    0.91625    0.04816    1.000
    Si4091   Si       0.52904    0.77317    0.13133    1.000
    N4092    N        0.55825    0.86975    0.15553    1.000
    N4093    N        0.52310    0.80968    0.15470    1.000
    Si4094   Si       0.53714    0.84265    0.12797    1.000
    N4095    N        0.68997    0.81165    0.14233    1.000
    Si4096   Si       0.64990    0.81018    0.15714    1.000
    N4097    N        0.63127    0.78031    0.13120    1.000
    N4098    N        0.62820    0.84845    0.15221    1.000
    Si4099   Si       0.73135    0.81904    0.14564    1.000
    N4100    N        0.53919    0.99791    0.12382    1.000
    Si4101   Si       0.52351    0.96474    0.14954    1.000
    N4102    N        0.49327    0.89671    0.16240    1.000
    Si4103   Si       0.49293    0.90279    0.11709    1.000
    N4104    N        0.55270    0.93882    0.16704    1.000
    N4105    N        0.69188    0.89250    0.15947    1.000
    Si4106   Si       0.64850    0.88939    0.15270    1.000
    N4107    N        0.73453    0.93871    0.13925    1.000
    Si4108   Si       0.69919    0.91950    0.12496    1.000
    N4109    N        0.67601    0.96135    0.12665    1.000
    Si4110   Si       0.63408    0.96985    0.13152    1.000
    Si4111   Si       0.71340    0.97820    0.14528    1.000
    N4112    N        0.65540    0.90078    0.11186    1.000
    Si4113   Si       0.50505    0.80485    0.19236    1.000
    N4114    N        0.59045    0.84949    0.21481    1.000
    Si4115   Si       0.59600    0.86506    0.17593    1.000
    N4116    N        0.65078    0.80343    0.20171    1.000
    Si4117   Si       0.68485    0.78312    0.22554    1.000
    Si4118   Si       0.61646    0.81762    0.22698    1.000
    N4119    N        0.69941    0.88248    0.22427    1.000
    Si4120   Si       0.72215    0.88279    0.18856    1.000
    N4121    N        0.53751    0.00413    0.18635    1.000
    Si4122   Si       0.59201    0.94268    0.18503    1.000
    Si4123   Si       0.56683    0.00167    0.21777    1.000
    N4124    N        0.53746    0.89392    0.21852    1.000
    Si4125   Si       0.50012    0.99069    0.20363    1.000
    N4126    N        0.58464    0.96068    0.22370    1.000
    Si4127   Si       0.53487    0.89982    0.17593    1.000
    Si4128   Si       0.70514    0.98399    0.22916    1.000
    Si4129   Si       0.63684    0.00180    0.20103    1.000
    N4130    N        0.71656    0.98910    0.18766    1.000
    N4131    N        0.61318    0.90502    0.17586    1.000
    N4132    N        0.62189    0.97306    0.17308    1.000
    N4133    N        0.54326    0.85192    0.27117    1.000
    Si4134   Si       0.50926    0.82344    0.26702    1.000
    Si4135   Si       0.55365    0.76849    0.24253    1.000
    Si4136   Si       0.56678    0.87380    0.24222    1.000
    N4137    N        0.55321    0.76382    0.28522    1.000
    N4138    N        0.59583    0.78031    0.23508    1.000
    N4139    N        0.52324    0.79806    0.23227    1.000
    N4140    N        0.64380    0.84616    0.25093    1.000
    Si4141   Si       0.68522    0.84977    0.24785    1.000
    N4142    N        0.69785    0.86365    0.28679    1.000
    N4143    N        0.66429    0.76136    0.25661    1.000
    Si4144   Si       0.62950    0.87941    0.27679    1.000
    N4145    N        0.70992    0.81592    0.23663    1.000
    Si4146   Si       0.50897    0.91826    0.24061    1.000
    Si4147   Si       0.52367    0.98165    0.27298    1.000
    N4148    N        0.59293    0.90213    0.26311    1.000
    Si4149   Si       0.58543    0.94469    0.26454    1.000
    N4150    N        0.50930    0.91814    0.28272    1.000
    N4151    N        0.50965    0.96336    0.23523    1.000
    N4152    N        0.66313    0.99348    0.23285    1.000
    N4153    N        0.65928    0.91143    0.27455    1.000
    N4154    N        0.71157    0.94369    0.24239    1.000
    Si4155   Si       0.65169    0.99609    0.27502    1.000
    N4156    N        0.62077    0.96403    0.28077    1.000
    Si4157   Si       0.70377    0.90440    0.26284    1.000
    Si4158   Si       0.58686    0.76848    0.31267    1.000
    N4159    N        0.50466    0.80260    0.30689    1.000
    N4160    N        0.52341    0.86605    0.33695    1.000
    N4161    N        0.57888    0.80157    0.34041    1.000
    Si4162   Si       0.51581    0.87751    0.29452    1.000
    Si4163   Si       0.50689    0.82609    0.34244    1.000
    Si4164   Si       0.51171    0.75942    0.29897    1.000
    N4165    N        0.61501    0.86042    0.31300    1.000
    Si4166   Si       0.61676    0.82102    0.33102    1.000
    N4167    N        0.62444    0.78837    0.30300    1.000
    Si4168   Si       0.71554    0.83437    0.31298    1.000
    N4169    N        0.69788    0.79428    0.31036    1.000
    Si4170   Si       0.71722    0.76651    0.33997    1.000
    Si4171   Si       0.66331    0.77374    0.29700    1.000
    Si4172   Si       0.60191    0.89133    0.33909    1.000
    Si4173   Si       0.54427    0.95391    0.33226    1.000
    N4174    N        0.56671    0.91639    0.33863    1.000
    N4175    N        0.49544    0.98189    0.30475    1.000
    N4176    N        0.55648    0.96245    0.29214    1.000
    N4177    N        0.50924    0.93412    0.34700    1.000
    N4178    N        0.63218    0.92149    0.33583    1.000
    Si4179   Si       0.64767    0.94140    0.30281    1.000
    N4180    N        0.68028    0.97261    0.30294    1.000
    Si4181   Si       0.70982    0.96100    0.33291    1.000
    N4182    N        0.72226    0.91759    0.33446    1.000
    Si4183   Si       0.56553    0.79220    0.38094    1.000
    N4184    N        0.52529    0.80410    0.37559    1.000
    N4185    N        0.59441    0.87361    0.37654    1.000
    Si4186   Si       0.69164    0.99296    0.38886    1.000
    Si4187   Si       0.61749    0.84166    0.39294    1.000
    N4188    N        0.69661    0.77708    0.37789    1.000
    Si4189   Si       0.68734    0.81978    0.37573    1.000
    N4190    N        0.64487    0.82366    0.36422    1.000
    N4191    N        0.71108    0.84859    0.35288    1.000
    Si4192   Si       0.53359    0.90056    0.36156    1.000
    N4193    N        0.54665    0.98584    0.36091    1.000
    Si4194   Si       0.51371    0.99895    0.38740    1.000
    N4195    N        0.54438    0.91675    0.39914    1.000
    N4196    N        0.49358    0.96370    0.40319    1.000
    Si4197   Si       0.71622    0.88978    0.36658    1.000
    N4198    N        0.67813    0.89632    0.38705    1.000
    Si4199   Si       0.65123    0.92707    0.37532    1.000
    N4200    N        0.73243    0.98723    0.36151    1.000
    N4201    N        0.67665    0.96017    0.36639    1.000
    N4202    N        0.61592    0.93421    0.40065    1.000
    Si4203   Si       0.59711    0.79167    0.44700    1.000
    N4204    N        0.55699    0.78167    0.45747    1.000
    N4205    N        0.59425    0.81103    0.40775    1.000
    Si4206   Si       0.70951    0.81365    0.45129    1.000
    N4207    N        0.63582    0.86192    0.42694    1.000
    N4208    N        0.70050    0.77127    0.45283    1.000
    Si4209   Si       0.67636    0.86928    0.42062    1.000
    N4210    N        0.69177    0.82976    0.41569    1.000
    N4211    N        0.62476    0.75887    0.44991    1.000
    N4212    N        0.57933    0.88702    0.44793    1.000
    Si4213   Si       0.52314    0.93963    0.42900    1.000
    N4214    N        0.50799    0.90864    0.45555    1.000
    N4215    N        0.54664    0.96673    0.45097    1.000
    Si4216   Si       0.58565    0.90370    0.40771    1.000
    N4217    N        0.59095    0.00230    0.41280    1.000
    Si4218   Si       0.61505    0.96845    0.42670    1.000
    N4219    N        0.70191    0.88873    0.45103    1.000
    Si4220   Si       0.67999    0.99152    0.45283    1.000
    N4221    N        0.71357    0.98718    0.42671    1.000
    N4222    N        0.65120    0.99386    0.41757    1.000
    Si4223   Si       0.55754    0.81632    0.48576    1.000
    N4224    N        0.52887    0.84776    0.47937    1.000
    N4225    N        0.60063    0.82620    0.47453    1.000
    N4226    N        0.55437    0.78950    0.51974    1.000
    Si4227   Si       0.48551    0.76411    0.52252    1.000
    N4228    N        0.69598    0.83211    0.48785    1.000
    Si4229   Si       0.72398    0.82089    0.51960    1.000
    N4230    N        0.72622    0.77637    0.52246    1.000
    Si4231   Si       0.68533    0.87535    0.49060    1.000
    N4232    N        0.55378    0.98672    0.51711    1.000
    N4233    N        0.55344    0.91857    0.50038    1.000
    Si4234   Si       0.56908    0.95660    0.48671    1.000
    N4235    N        0.60837    0.95601    0.46874    1.000
    Si4236   Si       0.54267    0.88850    0.47155    1.000
    N4237    N        0.70766    0.90403    0.51576    1.000
    N4238    N        0.67521    0.95247    0.47181    1.000
    N4239    N        0.64280    0.89070    0.48602    1.000
    Si4240   Si       0.63963    0.93347    0.48939    1.000
    Si4241   Si       0.71318    0.93999    0.49415    1.000
    Si4242   Si       0.61362    0.86586    0.46354    1.000
    Si4243   Si       0.55795    0.79459    0.56291    1.000
    N4244    N        0.49373    0.77019    0.56502    1.000
    N4245    N        0.58742    0.82652    0.57727    1.000
    N4246    N        0.53454    0.88192    0.55540    1.000
    N4247    N        0.52622    0.82187    0.58031    1.000
    Si4248   Si       0.55372    0.85535    0.58275    1.000
    N4249    N        0.69832    0.84273    0.55166    1.000
    N4250    N        0.50213    0.00498    0.56046    1.000
    N4251    N        0.72400    0.96803    0.52435    1.000
    Si4252   Si       0.53776    0.98194    0.55947    1.000
    Si4253   Si       0.52417    0.91524    0.53104    1.000
    N4254    N        0.52605    0.94194    0.56335    1.000
    N4255    N        0.66903    0.90074    0.57429    1.000
    N4256    N        0.64173    0.94755    0.52813    1.000
    Si4257   Si       0.65559    0.94202    0.56750    1.000
    Si4258   Si       0.71194    0.99222    0.55748    1.000
    Si4259   Si       0.70638    0.88454    0.55532    1.000
    N4260    N        0.52772    0.75857    0.62623    1.000
    N4261    N        0.68647    0.88790    0.63554    1.000
    N4262    N        0.61118    0.77487    0.61709    1.000
    Si4263   Si       0.61315    0.81675    0.60928    1.000
    N4264    N        0.71443    0.82501    0.61491    1.000
    Si4265   Si       0.72155    0.86417    0.62655    1.000
    N4266    N        0.64953    0.83817    0.59905    1.000
    Si4267   Si       0.65378    0.87886    0.60757    1.000
    Si4268   Si       0.68272    0.81817    0.58378    1.000
    N4269    N        0.55056    0.88637    0.61392    1.000
    Si4270   Si       0.52167    0.90914    0.58920    1.000
    N4271    N        0.56470    0.00135    0.58769    1.000
    Si4272   Si       0.61053    0.99736    0.58553    1.000
    N4273    N        0.50947    0.98571    0.64175    1.000
    N4274    N        0.61815    0.89541    0.63002    1.000
    Si4275   Si       0.62247    0.93994    0.63419    1.000
    N4276    N        0.73327    0.88615    0.59100    1.000
    Si4277   Si       0.67082    0.98699    0.62276    1.000
    N4278    N        0.62176    0.95442    0.59200    1.000
    N4279    N        0.68408    0.97033    0.58494    1.000
    N4280    N        0.67236    0.77648    0.58592    1.000
    N4281    N        0.53767    0.81785    0.66843    1.000
    Si4282   Si       0.52465    0.85650    0.68534    1.000
    N4283    N        0.50798    0.76952    0.69045    1.000
    Si4284   Si       0.50968    0.78845    0.65010    1.000
    N4285    N        0.56405    0.87649    0.68178    1.000
    Si4286   Si       0.59732    0.84862    0.68750    1.000
    N4287    N        0.49360    0.87220    0.66236    1.000
    N4288    N        0.57890    0.76154    0.67104    1.000
    N4289    N        0.60902    0.82784    0.65048    1.000
    Si4290   Si       0.55466    0.78643    0.69762    1.000
    Si4291   Si       0.61314    0.78889    0.66829    1.000
    N4292    N        0.65170    0.77572    0.68457    1.000
    N4293    N        0.69293    0.83127    0.69736    1.000
    Si4294   Si       0.73390    0.82462    0.68810    1.000
    N4295    N        0.73580    0.78774    0.66422    1.000
    N4296    N        0.73862    0.94145    0.66394    1.000
    N4297    N        0.58452    0.94199    0.65501    1.000
    Si4298   Si       0.57946    0.95827    0.69443    1.000
    Si4299   Si       0.57749    0.89858    0.64516    1.000
    Si4300   Si       0.52655    0.00257    0.67814    1.000
    N4301    N        0.61142    0.98818    0.69582    1.000
    N4302    N        0.66278    0.95072    0.64744    1.000
    N4303    N        0.70191    0.90498    0.69711    1.000
    Si4304   Si       0.69665    0.92420    0.65723    1.000
    N4305    N        0.63317    0.87342    0.69933    1.000
    N4306    N        0.52574    0.86263    0.72923    1.000
    N4307    N        0.55097    0.77918    0.74038    1.000
    N4308    N        0.59485    0.81045    0.70844    1.000
    N4309    N        0.59297    0.87518    0.75267    1.000
    Si4310   Si       0.59532    0.79593    0.75110    1.000
    Si4311   Si       0.49134    0.85545    0.75410    1.000
    N4312    N        0.71102    0.77872    0.72819    1.000
    Si4313   Si       0.67390    0.79681    0.71645    1.000
    N4314    N        0.65096    0.80828    0.75192    1.000
    N4315    N        0.67745    0.87380    0.74652    1.000
    Si4316   Si       0.67611    0.86959    0.70233    1.000
    Si4317   Si       0.55805    0.89338    0.72833    1.000
    Si4318   Si       0.51530    0.95543    0.73836    1.000
    N4319    N        0.58891    0.92529    0.71969    1.000
    N4320    N        0.53438    0.92018    0.75688    1.000
    N4321    N        0.54128    0.97325    0.70905    1.000
    N4322    N        0.73407    0.93077    0.74181    1.000
    Si4323   Si       0.69292    0.91533    0.73888    1.000
    Si4324   Si       0.64026    0.97329    0.72475    1.000
    N4325    N        0.67646    0.99661    0.71691    1.000
    Si4326   Si       0.62209    0.90124    0.73321    1.000
    N4327    N        0.65277    0.93329    0.73462    1.000
    N4328    N        0.59403    0.81453    0.79122    1.000
    Si4329   Si       0.59904    0.85838    0.79403    1.000
    N4330    N        0.52119    0.76565    0.80335    1.000
    N4331    N        0.49886    0.87315    0.79417    1.000
    N4332    N        0.61162    0.75773    0.76547    1.000
    Si4333   Si       0.66775    0.84298    0.77424    1.000
    N4334    N        0.64215    0.86160    0.80393    1.000
    N4335    N        0.70102    0.81997    0.78750    1.000
    Si4336   Si       0.64791    0.77435    0.78051    1.000
    Si4337   Si       0.71604    0.77837    0.77653    1.000
    N4338    N        0.56747    0.88548    0.81393    1.000
    Si4339   Si       0.53080    0.90071    0.79521    1.000
    N4340    N        0.50295    0.98086    0.77089    1.000
    Si4341   Si       0.51141    0.97150    0.81298    1.000
    N4342    N        0.68329    0.97860    0.78512    1.000
    Si4343   Si       0.64140    0.96750    0.79818    1.000
    N4344    N        0.62101    0.98391    0.76443    1.000
    N4345    N        0.64584    0.92755    0.81383    1.000
    N4346    N        0.55669    0.81669    0.84887    1.000
    Si4347   Si       0.51680    0.80785    0.86207    1.000
    N4348    N        0.51496    0.76542    0.86871    1.000
    Si4349   Si       0.59978    0.79944    0.83390    1.000
    Si4350   Si       0.57771    0.84535    0.87361    1.000
    N4351    N        0.58515    0.75965    0.84754    1.000
    N4352    N        0.48971    0.82079    0.83045    1.000
    N4353    N        0.61702    0.83012    0.86118    1.000
    N4354    N        0.68501    0.82582    0.85138    1.000
    Si4355   Si       0.68434    0.78252    0.84424    1.000
    N4356    N        0.64454    0.77279    0.82530    1.000
    N4357    N        0.71956    0.76968    0.82308    1.000
    Si4358   Si       0.71278    0.84212    0.82284    1.000
    Si4359   Si       0.55963    0.91879    0.84831    1.000
    N4360    N        0.52374    0.93244    0.82475    1.000
    N4361    N        0.53357    0.00242    0.83362    1.000
    Si4362   Si       0.55567    0.99551    0.87075    1.000
    Si4363   Si       0.65601    0.97761    0.86919    1.000
    Si4364   Si       0.66355    0.89247    0.82875    1.000
    N4365    N        0.65926    0.88480    0.87189    1.000
    N4366    N        0.63793    0.99284    0.83450    1.000
    N4367    N        0.69646    0.97074    0.85797    1.000
    N4368    N        0.70609    0.88743    0.82032    1.000
    N4369    N        0.56805    0.95341    0.87217    1.000
    N4370    N        0.55713    0.88548    0.87652    1.000
    Si4371   Si       0.71091    0.98238    0.81782    1.000
    N4372    N        0.57731    0.84130    0.91663    1.000
    N4373    N        0.49788    0.81822    0.90049    1.000
    N4374    N        0.60806    0.76981    0.91697    1.000
    Si4375   Si       0.58073    0.80282    0.93127    1.000
    N4376    N        0.54196    0.78651    0.93199    1.000
    Si4377   Si       0.52136    0.75615    0.91025    1.000
    N4378    N        0.66845    0.82959    0.91868    1.000
    Si4379   Si       0.69053    0.79022    0.92176    1.000
    N4380    N        0.68747    0.76565    0.88483    1.000
    Si4381   Si       0.65528    0.84195    0.87881    1.000
    Si4382   Si       0.55747    0.88124    0.92151    1.000
    Si4383   Si       0.59421    0.94527    0.90819    1.000
    N4384    N        0.59499    0.98220    0.93255    1.000
    N4385    N        0.58477    0.91142    0.93436    1.000
    Si4386   Si       0.72063    0.95607    0.89035    1.000
    N4387    N        0.69591    0.93378    0.91618    1.000
    Si4388   Si       0.65990    0.91334    0.90445    1.000
    N4389    N        0.63294    0.94410    0.89013    1.000
    N4390    N        0.73202    0.79995    0.93231    1.000
    N4391    N        0.54479    0.82575    0.98403    1.000
    Si4392   Si       0.51782    0.82147    0.94270    1.000
    N4393    N        0.60323    0.80156    0.96650    1.000
    Si4394   Si       0.58552    0.83195    0.99110    1.000
    N4395    N        0.51939    0.86803    0.93761    1.000
    Si4396   Si       0.72921    0.99181    0.95796    1.000
    Si4397   Si       0.62304    0.76279    0.95855    1.000
    N4398    N        0.66948    0.76422    0.95096    1.000
    Si4399   Si       0.67525    0.85866    0.95110    1.000
    N4400    N        0.71476    0.87667    0.95310    1.000
    N4401    N        0.68070    0.84192    0.99202    1.000
    N4402    N        0.64832    0.89231    0.94156    1.000
    Si4403   Si       0.58422    0.97448    0.97565    1.000
    Si4404   Si       0.50322    0.98212    0.98868    1.000
    Si4405   Si       0.61523    0.90451    0.96569    1.000
    N4406    N        0.61537    0.94444    0.98547    1.000
    N4407    N        0.71145    0.95504    0.97669    1.000
    Si4408   Si       0.72229    0.92212    0.94951    1.000
    N4409    N        0.54362    0.96694    0.98994    1.000
    N4410    N        0.60025    0.87410    0.99318    1.000
    Si4411   Si       0.83877    0.03006    0.03694    1.000
    N4412    N        0.78058    0.06822    0.00521    1.000
    Si4413   Si       0.74751    0.06929    0.03373    1.000
    Si4414   Si       0.92312    0.05622    0.02240    1.000
    N4415    N        0.95681    0.02983    0.02215    1.000
    N4416    N        0.88354    0.03211    0.02153    1.000
    Si4417   Si       0.91023    0.12594    0.04453    1.000
    N4418    N        0.93417    0.08983    0.05022    1.000
    Si4419   Si       0.82922    0.21911    0.05285    1.000
    N4420    N        0.98368    0.12603    0.00648    1.000
    Si4421   Si       0.94866    0.19119    0.04802    1.000
    N4422    N        0.79556    0.13605    0.01709    1.000
    N4423    N        0.81195    0.22407    0.01147    1.000
    Si4424   Si       0.77983    0.25367    0.00516    1.000
    N4425    N        0.86928    0.23377    0.04622    1.000
    N4426    N        0.90296    0.13778    0.00372    1.000
    Si4427   Si       0.89031    0.23134    0.00906    1.000
    N4428    N        0.92602    0.20386    0.01157    1.000
    N4429    N        0.74153    0.24268    0.01647    1.000
    N4430    N        0.75333    0.05279    0.07382    1.000
    Si4431   Si       0.79264    0.03751    0.07927    1.000
    Si4432   Si       0.84837    0.09187    0.08605    1.000
    N4433    N        0.82849    0.06095    0.06507    1.000
    N4434    N        0.77155    0.13269    0.08804    1.000
    N4435    N        0.83442    0.12792    0.10904    1.000
    N4436    N        0.87425    0.11951    0.06504    1.000
    Si4437   Si       0.96664    0.09071    0.07894    1.000
    N4438    N        0.96894    0.01281    0.09138    1.000
    N4439    N        0.98849    0.12703    0.08481    1.000
    N4440    N        0.82858    0.17709    0.06118    1.000
    Si4441   Si       0.76554    0.22161    0.08933    1.000
    N4442    N        0.80939    0.23534    0.08864    1.000
    Si4443   Si       0.85698    0.15592    0.08435    1.000
    Si4444   Si       0.78839    0.15691    0.05575    1.000
    N4445    N        0.76185    0.19242    0.05774    1.000
    N4446    N        0.87917    0.17758    0.11513    1.000
    Si4447   Si       0.96211    0.22943    0.10535    1.000
    Si4448   Si       0.92154    0.16409    0.10878    1.000
    Si4449   Si       0.89941    0.24727    0.07456    1.000
    N4450    N        0.93753    0.22466    0.07098    1.000
    N4451    N        0.92849    0.15728    0.06767    1.000
    Si4452   Si       0.98775    0.02830    0.05399    1.000
    Si4453   Si       0.80780    0.04302    0.15363    1.000
    Si4454   Si       0.79407    0.12212    0.12601    1.000
    N4455    N        0.79687    0.08261    0.14185    1.000
    N4456    N        0.84963    0.03353    0.16665    1.000
    Si4457   Si       0.87567    0.21252    0.14136    1.000
    N4458    N        0.95801    0.01019    0.15901    1.000
    N4459    N        0.86913    0.08228    0.12228    1.000
    Si4460   Si       0.87131    0.12449    0.13651    1.000
    Si4461   Si       0.94367    0.03177    0.12314    1.000
    Si4462   Si       0.94050    0.09718    0.15221    1.000
    Si4463   Si       0.88120    0.04845    0.14270    1.000
    N4464    N        0.91420    0.06174    0.16649    1.000
    N4465    N        0.98161    0.12062    0.16003    1.000
    N4466    N        0.91776    0.12689    0.13118    1.000
    N4467    N        0.95416    0.07375    0.11693    1.000
    N4468    N        0.90378    0.02128    0.11571    1.000
    N4469    N        0.74469    0.20485    0.12290    1.000
    N4470    N        0.83948    0.23107    0.15722    1.000
    N4471    N        0.78757    0.14543    0.16323    1.000
    Si4472   Si       0.74644    0.23178    0.15684    1.000
    Si4473   Si       0.81533    0.25401    0.12739    1.000
    N4474    N        0.94818    0.19562    0.12782    1.000
    N4475    N        0.88567    0.24560    0.11436    1.000
    Si4476   Si       0.94534    0.20581    0.16939    1.000
    N4477    N        0.80149    0.01832    0.11689    1.000
    N4478    N        0.77778    0.02681    0.18117    1.000
    N4479    N        0.80529    0.12483    0.22572    1.000
    N4480    N        0.73842    0.13093    0.20870    1.000
    Si4481   Si       0.91131    0.07223    0.20902    1.000
    N4482    N        0.95248    0.05711    0.21898    1.000
    N4483    N        0.92820    0.11531    0.19396    1.000
    Si4484   Si       0.95890    0.01928    0.20164    1.000
    N4485    N        0.88755    0.03473    0.22360    1.000
    N4486    N        0.87735    0.09987    0.22756    1.000
    Si4487   Si       0.82019    0.14780    0.19178    1.000
    N4488    N        0.75781    0.20367    0.18707    1.000
    Si4489   Si       0.83362    0.22752    0.20131    1.000
    N4490    N        0.82288    0.18607    0.21186    1.000
    Si4491   Si       0.76748    0.22453    0.22451    1.000
    N4492    N        0.80156    0.25016    0.22135    1.000
    Si4493   Si       0.75267    0.16164    0.17887    1.000
    N4494    N        0.85924    0.13870    0.17564    1.000
    Si4495   Si       0.90317    0.24724    0.20361    1.000
    N4496    N        0.93689    0.23292    0.23191    1.000
    Si4497   Si       0.96774    0.13350    0.19960    1.000
    Si4498   Si       0.89183    0.13516    0.20766    1.000
    N4499    N        0.95787    0.17679    0.19746    1.000
    N4500    N        0.86789    0.23871    0.22599    1.000
    N4501    N        0.90396    0.21211    0.17569    1.000
    N4502    N        0.97000    0.24098    0.17403    1.000
    N4503    N        0.76609    0.07510    0.25712    1.000
    N4504    N        0.83472    0.06669    0.26172    1.000
    Si4505   Si       0.83967    0.10651    0.24578    1.000
    N4506    N        0.78967    0.01457    0.27712    1.000
    Si4507   Si       0.76329    0.11580    0.24077    1.000
    Si4508   Si       0.79873    0.05476    0.28186    1.000
    Si4509   Si       0.86774    0.04092    0.26146    1.000
    N4510    N        0.97542    0.12023    0.23866    1.000
    Si4511   Si       0.98087    0.07665    0.24420    1.000
    N4512    N        0.97418    0.05754    0.28211    1.000
    N4513    N        0.84640    0.14510    0.26831    1.000
    N4514    N        0.75001    0.13690    0.27557    1.000
    N4515    N        0.83838    0.20745    0.28162    1.000
    N4516    N        0.77481    0.19311    0.25392    1.000
    Si4517   Si       0.81715    0.17586    0.25443    1.000
    Si4518   Si       0.74288    0.17947    0.27991    1.000
    Si4519   Si       0.86447    0.23911    0.27004    1.000
    Si4520   Si       0.96016    0.13729    0.27532    1.000
    N4521    N        0.96066    0.18007    0.26948    1.000
    N4522    N        0.90064    0.16586    0.23961    1.000
    Si4523   Si       0.93815    0.18898    0.23444    1.000
    Si4524   Si       0.88568    0.15404    0.28097    1.000
    N4525    N        0.96748    0.24820    0.28851    1.000
    N4526    N        0.81102    0.05842    0.32560    1.000
    N4527    N        0.75339    0.11054    0.33237    1.000
    N4528    N        0.73798    0.03855    0.31294    1.000
    Si4529   Si       0.97941    0.08134    0.31876    1.000
    Si4530   Si       0.90535    0.09285    0.31646    1.000
    N4531    N        0.94091    0.08179    0.34010    1.000
    Si4532   Si       0.88984    0.02097    0.31678    1.000
    N4533    N        0.87339    0.10621    0.34140    1.000
    Si4534   Si       0.97052    0.01722    0.30017    1.000
    N4535    N        0.89270    0.05910    0.29414    1.000
    N4536    N        0.94335    0.20649    0.34101    1.000
    N4537    N        0.89112    0.24693    0.30555    1.000
    N4538    N        0.74819    0.19233    0.32037    1.000
    Si4539   Si       0.84073    0.18783    0.32039    1.000
    Si4540   Si       0.76773    0.15339    0.33700    1.000
    N4541    N        0.81038    0.15476    0.32919    1.000
    N4542    N        0.78187    0.25228    0.32969    1.000
    Si4543   Si       0.74373    0.23253    0.33630    1.000
    Si4544   Si       0.93106    0.24322    0.31894    1.000
    N4545    N        0.88326    0.17450    0.31904    1.000
    N4546    N        0.91882    0.12582    0.28879    1.000
    N4547    N        0.80954    0.10076    0.37433    1.000
    N4548    N        0.76405    0.05072    0.37443    1.000
    Si4549   Si       0.82582    0.03135    0.35915    1.000
    N4550    N        0.82138    0.03529    0.40315    1.000
    Si4551   Si       0.78134    0.08108    0.34845    1.000
    Si4552   Si       0.95787    0.14391    0.40428    1.000
    N4553    N        0.86879    0.01745    0.35566    1.000
    Si4554   Si       0.94254    0.07504    0.38180    1.000
    N4555    N        0.94486    0.03272    0.39279    1.000
    N4556    N        0.90471    0.08786    0.39684    1.000
    Si4557   Si       0.89011    0.12276    0.37776    1.000
    N4558    N        0.97150    0.10231    0.39860    1.000
    N4559    N        0.76244    0.16094    0.37907    1.000
    Si4560   Si       0.84968    0.19002    0.39176    1.000
    Si4561   Si       0.81619    0.25201    0.35537    1.000
    N4562    N        0.85385    0.14750    0.38394    1.000
    N4563    N        0.83471    0.21367    0.35572    1.000
    N4564    N        0.79839    0.25485    0.39739    1.000
    N4565    N        0.88991    0.20893    0.38914    1.000
    Si4566   Si       0.90730    0.18633    0.35587    1.000
    Si4567   Si       0.98385    0.19915    0.35525    1.000
    N4568    N        0.92138    0.15229    0.38070    1.000
    Si4569   Si       0.83388    0.12583    0.34806    1.000
    N4570    N        0.75545    0.07928    0.43091    1.000
    N4571    N        0.85315    0.09492    0.43568    1.000
    Si4572   Si       0.78081    0.04660    0.41409    1.000
    N4573    N        0.77474    0.01472    0.44382    1.000
    Si4574   Si       0.82777    0.11937    0.40993    1.000
    Si4575   Si       0.84666    0.01161    0.43090    1.000
    Si4576   Si       0.77681    0.10354    0.45968    1.000
    N4577    N        0.88770    0.02972    0.43049    1.000
    Si4578   Si       0.89036    0.07337    0.43415    1.000
    N4579    N        0.92048    0.08315    0.46177    1.000
    N4580    N        0.80000    0.13308    0.43875    1.000
    Si4581   Si       0.79499    0.17750    0.44314    1.000
    Si4582   Si       0.82615    0.24305    0.42872    1.000
    N4583    N        0.76029    0.20554    0.43226    1.000
    N4584    N        0.82859    0.19915    0.42767    1.000
    Si4585   Si       0.92220    0.00680    0.42039    1.000
    N4586    N        0.90802    0.24669    0.45607    1.000
    Si4587   Si       0.89947    0.24492    0.41304    1.000
    N4588    N        0.95483    0.14295    0.44928    1.000
    Si4589   Si       0.95510    0.24905    0.45182    1.000
    N4590    N        0.94306    0.25280    0.40737    1.000
    Si4591   Si       0.75835    0.24472    0.40889    1.000
    Si4592   Si       0.84010    0.09251    0.47719    1.000
    Si4593   Si       0.79304    0.02695    0.47996    1.000
    N4594    N        0.75130    0.11784    0.49059    1.000
    N4595    N        0.80216    0.06961    0.47523    1.000
    N4596    N        0.83722    0.00982    0.47703    1.000
    N4597    N        0.83642    0.13066    0.49893    1.000
    Si4598   Si       0.87075    0.02724    0.50127    1.000
    N4599    N        0.86926    0.07243    0.50017    1.000
    N4600    N        0.91526    0.02883    0.50587    1.000
    Si4601   Si       0.91665    0.07222    0.50641    1.000
    N4602    N        0.95695    0.09014    0.51010    1.000
    N4603    N        0.89874    0.17932    0.48964    1.000
    Si4604   Si       0.75393    0.20870    0.47543    1.000
    N4605    N        0.78687    0.18247    0.48515    1.000
    N4606    N        0.76044    0.24207    0.50141    1.000
    Si4607   Si       0.80738    0.15901    0.51380    1.000
    N4608    N        0.95103    0.21321    0.48535    1.000
    Si4609   Si       0.94071    0.17116    0.48068    1.000
    Si4610   Si       0.90777    0.22280    0.49180    1.000
    N4611    N        0.95837    0.15718    0.51760    1.000
    Si4612   Si       0.86809    0.15975    0.51246    1.000
    Si4613   Si       0.95854    0.10428    0.46806    1.000
    N4614    N        0.83630    0.07663    0.55588    1.000
    N4615    N        0.76082    0.07792    0.54938    1.000
    Si4616   Si       0.75168    0.11672    0.53297    1.000
    Si4617   Si       0.79866    0.08375    0.57413    1.000
    Si4618   Si       0.83641    0.03158    0.57330    1.000
    Si4619   Si       0.74598    0.04501    0.57088    1.000
    N4620    N        0.86481    0.01438    0.54221    1.000
    Si4621   Si       0.87113    0.09336    0.53869    1.000
    N4622    N        0.90643    0.07321    0.55561    1.000
    Si4623   Si       0.89928    0.03058    0.56478    1.000
    N4624    N        0.97371    0.07205    0.57420    1.000
    N4625    N        0.93549    0.01525    0.58044    1.000
    N4626    N        0.89095    0.13173    0.53441    1.000
    Si4627   Si       0.89578    0.22377    0.56864    1.000
    N4628    N        0.78667    0.13987    0.54657    1.000
    Si4629   Si       0.82723    0.20135    0.56910    1.000
    N4630    N        0.79186    0.22513    0.57344    1.000
    N4631    N        0.83852    0.18739    0.53023    1.000
    N4632    N        0.89518    0.24009    0.52920    1.000
    N4633    N        0.91274    0.18459    0.56794    1.000
    Si4634   Si       0.92721    0.15063    0.54520    1.000
    N4635    N        0.78642    0.11206    0.60570    1.000
    N4636    N        0.80037    0.04654    0.59628    1.000
    Si4637   Si       0.76341    0.09152    0.63513    1.000
    Si4638   Si       0.79980    0.03252    0.63953    1.000
    N4639    N        0.87246    0.03803    0.59881    1.000
    Si4640   Si       0.97298    0.03239    0.59375    1.000
    N4641    N        0.92249    0.09079    0.63008    1.000
    N4642    N        0.97155    0.04116    0.63562    1.000
    Si4643   Si       0.93467    0.09004    0.58764    1.000
    Si4644   Si       0.86717    0.04148    0.64007    1.000
    N4645    N        0.74720    0.17632    0.59898    1.000
    N4646    N        0.82285    0.16813    0.59508    1.000
    Si4647   Si       0.84574    0.23886    0.62720    1.000
    Si4648   Si       0.84577    0.16603    0.63023    1.000
    Si4649   Si       0.75214    0.22205    0.59502    1.000
    N4650    N        0.86007    0.22098    0.59043    1.000
    Si4651   Si       0.78371    0.15251    0.58872    1.000
    N4652    N        0.74219    0.25563    0.62179    1.000
    Si4653   Si       0.95891    0.22536    0.61783    1.000
    N4654    N        0.88466    0.14916    0.62290    1.000
    Si4655   Si       0.92062    0.16389    0.60469    1.000
    N4656    N        0.94949    0.18343    0.63025    1.000
    N4657    N        0.92436    0.24363    0.59626    1.000
    N4658    N        0.94362    0.13173    0.58227    1.000
    N4659    N        0.79235    0.07063    0.65863    1.000
    Si4660   Si       0.82271    0.09923    0.66814    1.000
    N4661    N        0.83678    0.01594    0.65184    1.000
    N4662    N        0.85595    0.08299    0.64756    1.000
    N4663    N        0.90236    0.03515    0.66470    1.000
    Si4664   Si       0.93827    0.05965    0.65716    1.000
    N4665    N        0.95521    0.07306    0.69326    1.000
    Si4666   Si       0.88852    0.11259    0.64679    1.000
    Si4667   Si       0.98606    0.10467    0.69644    1.000
    N4668    N        0.88959    0.12894    0.68644    1.000
    Si4669   Si       0.74485    0.14720    0.69041    1.000
    N4670    N        0.83752    0.20347    0.65142    1.000
    Si4671   Si       0.82049    0.17874    0.68595    1.000
    N4672    N        0.82589    0.14295    0.66047    1.000
    N4673    N        0.77728    0.17362    0.69318    1.000
    Si4674   Si       0.97835    0.17046    0.66165    1.000
    N4675    N        0.95995    0.25160    0.65369    1.000
    N4676    N        0.92542    0.19796    0.69773    1.000
    N4677    N        0.96061    0.13917    0.68412    1.000
    Si4678   Si       0.95595    0.22781    0.68919    1.000
    Si4679   Si       0.92200    0.15406    0.69960    1.000
    N4680    N        0.73995    0.11950    0.65732    1.000
    Si4681   Si       0.90160    0.01495    0.70191    1.000
    Si4682   Si       0.80604    0.07988    0.74245    1.000
    N4683    N        0.76781    0.06151    0.73170    1.000
    N4684    N        0.83140    0.09980    0.71245    1.000
    Si4685   Si       0.76034    0.01743    0.73218    1.000
    N4686    N        0.73907    0.12202    0.72467    1.000
    N4687    N        0.83220    0.04696    0.75653    1.000
    Si4688   Si       0.86443    0.12996    0.72384    1.000
    N4689    N        0.90408    0.04494    0.73511    1.000
    Si4690   Si       0.94470    0.06397    0.73635    1.000
    N4691    N        0.97559    0.03807    0.74907    1.000
    N4692    N        0.87291    0.23093    0.73952    1.000
    N4693    N        0.87847    0.10521    0.75693    1.000
    Si4694   Si       0.90551    0.20259    0.73704    1.000
    N4695    N        0.84468    0.16965    0.72402    1.000
    Si4696   Si       0.83726    0.20857    0.74680    1.000
    Si4697   Si       0.76627    0.20695    0.71755    1.000
    N4698    N        0.80702    0.22557    0.72071    1.000
    N4699    N        0.74894    0.18358    0.75140    1.000
    N4700    N        0.95898    0.24972    0.72486    1.000
    N4701    N        0.90835    0.15675    0.74127    1.000
    N4702    N        0.79131    0.11253    0.76632    1.000
    Si4703   Si       0.79396    0.09678    0.80796    1.000
    N4704    N        0.76726    0.06030    0.81061    1.000
    N4705    N        0.88497    0.05361    0.80416    1.000
    Si4706   Si       0.91299    0.12629    0.77068    1.000
    Si4707   Si       0.87314    0.06134    0.76214    1.000
    Si4708   Si       0.92423    0.19229    0.81032    1.000
    Si4709   Si       0.81844    0.00708    0.76948    1.000
    N4710    N        0.94679    0.10032    0.76129    1.000
    Si4711   Si       0.84363    0.25474    0.80398    1.000
    N4712    N        0.83041    0.21203    0.78883    1.000
    N4713    N        0.92835    0.21084    0.77404    1.000
    N4714    N        0.91330    0.15142    0.80720    1.000
    Si4715   Si       0.96670    0.22731    0.76177    1.000
    Si4716   Si       0.91092    0.02151    0.81755    1.000
    Si4717   Si       0.75656    0.13945    0.76157    1.000
    Si4718   Si       0.79462    0.03689    0.83369    1.000
    N4719    N        0.82113    0.06980    0.83018    1.000
    N4720    N        0.78106    0.02773    0.87350    1.000
    N4721    N        0.79767    0.13157    0.83196    1.000
    Si4722   Si       0.86331    0.07376    0.83972    1.000
    N4723    N        0.86826    0.11633    0.84981    1.000
    Si4724   Si       0.92428    0.06717    0.87079    1.000
    N4725    N        0.93597    0.10273    0.85021    1.000
    N4726    N        0.94240    0.03663    0.84529    1.000
    Si4727   Si       0.97719    0.11417    0.84414    1.000
    N4728    N        0.88260    0.05223    0.87114    1.000
    Si4729   Si       0.79487    0.25157    0.87342    1.000
    Si4730   Si       0.83231    0.13855    0.85791    1.000
    Si4731   Si       0.76108    0.15403    0.83073    1.000
    N4732    N        0.84499    0.17856    0.84949    1.000
    N4733    N        0.77393    0.19498    0.82881    1.000
    Si4734   Si       0.81670    0.20285    0.82808    1.000
    N4735    N        0.82488    0.24465    0.84164    1.000
    Si4736   Si       0.74065    0.21913    0.84449    1.000
    N4737    N        0.91368    0.16653    0.87592    1.000
    Si4738   Si       0.90843    0.13287    0.84743    1.000
    N4739    N        0.90121    0.21703    0.83659    1.000
    N4740    N        0.96639    0.18859    0.83014    1.000
    Si4741   Si       0.88172    0.19456    0.86655    1.000
    Si4742   Si       0.95520    0.18016    0.87131    1.000
    N4743    N        0.98171    0.14409    0.87470    1.000
    Si4744   Si       0.98717    0.03796    0.84942    1.000
    N4745    N        0.75761    0.09816    0.89336    1.000
    Si4746   Si       0.75453    0.05583    0.89810    1.000
    Si4747   Si       0.77768    0.12948    0.91616    1.000
    Si4748   Si       0.87684    0.23444    0.92587    1.000
    Si4749   Si       0.89310    0.03235    0.91089    1.000
    N4750    N        0.92375    0.06434    0.91329    1.000
    N4751    N        0.88530    0.12508    0.93645    1.000
    N4752    N        0.81271    0.14325    0.89586    1.000
    N4753    N        0.74842    0.15959    0.92943    1.000
    N4754    N        0.80035    0.21429    0.89580    1.000
    Si4755   Si       0.82362    0.18202    0.91257    1.000
    N4756    N        0.86748    0.19308    0.90946    1.000
    Si4757   Si       0.89934    0.16030    0.91730    1.000
    N4758    N        0.96958    0.20847    0.89920    1.000
    Si4759   Si       0.78739    0.03557    0.97619    1.000
    N4760    N        0.79025    0.11740    0.95635    1.000
    N4761    N        0.82789    0.02633    0.99118    1.000
    N4762    N        0.84931    0.08843    0.98751    1.000
    Si4763   Si       0.80703    0.10055    0.99326    1.000
    Si4764   Si       0.86851    0.04816    0.98338    1.000
    N4765    N        0.87285    0.02241    0.94724    1.000
    N4766    N        0.96005    0.02414    0.95292    1.000
    N4767    N        0.91183    0.07014    0.97958    1.000
    Si4768   Si       0.94413    0.06606    0.95117    1.000
    Si4769   Si       0.88675    0.10806    0.97568    1.000
    N4770    N        0.97839    0.09121    0.94914    1.000
    N4771    N        0.81178    0.18270    0.95548    1.000
    Si4772   Si       0.83267    0.21460    0.97459    1.000
    Si4773   Si       0.78472    0.15721    0.97909    1.000
    N4774    N        0.84284    0.24789    0.94802    1.000
    N4775    N        0.74948    0.17995    0.99192    1.000
    N4776    N        0.98051    0.22297    0.96861    1.000
    N4777    N        0.87176    0.20083    0.98372    1.000
    N4778    N        0.91859    0.23962    0.94223    1.000
    Si4779   Si       0.90919    0.17638    0.98484    1.000
    Si4780   Si       0.95084    0.21084    0.93785    1.000
    N4781    N        0.92775    0.17488    0.94557    1.000
    N4782    N        0.77824    0.04395    0.93523    1.000
    N4783    N        0.79413    0.29045    0.02092    1.000
    N4784    N        0.80204    0.34933    0.03435    1.000
    Si4785   Si       0.82289    0.31949    0.00714    1.000
    N4786    N        0.86061    0.32378    0.02936    1.000
    Si4787   Si       0.77287    0.31826    0.04648    1.000
    Si4788   Si       0.93356    0.35608    0.05308    1.000
    N4789    N        0.93240    0.33080    0.01860    1.000
    Si4790   Si       0.89911    0.30299    0.02601    1.000
    N4791    N        0.89923    0.27177    0.99837    1.000
    Si4792   Si       0.92267    0.47316    0.02588    1.000
    N4793    N        0.96370    0.38231    0.03825    1.000
    Si4794   Si       0.80050    0.50048    0.04250    1.000
    Si4795   Si       0.85078    0.47491    0.00479    1.000
    N4796    N        0.76414    0.47405    0.04348    1.000
    Si4797   Si       0.80645    0.39208    0.03315    1.000
    N4798    N        0.85012    0.39431    0.03200    1.000
    N4799    N        0.82974    0.46728    0.04261    1.000
    N4800    N        0.78146    0.40685    0.00059    1.000
    Si4801   Si       0.98222    0.41917    0.02973    1.000
    N4802    N        0.95376    0.44857    0.04627    1.000
    N4803    N        0.88575    0.45058    0.02449    1.000
    N4804    N        0.78679    0.30847    0.08678    1.000
    N4805    N        0.83854    0.36002    0.09984    1.000
    Si4806   Si       0.74133    0.49576    0.10653    1.000
    N4807    N        0.95487    0.34134    0.08748    1.000
    Si4808   Si       0.93359    0.30409    0.09681    1.000
    N4809    N        0.89610    0.36677    0.06992    1.000
    N4810    N        0.91130    0.28732    0.06455    1.000
    Si4811   Si       0.88565    0.35731    0.11281    1.000
    Si4812   Si       0.91354    0.49497    0.09897    1.000
    Si4813   Si       0.82466    0.40409    0.10610    1.000
    Si4814   Si       0.76444    0.43885    0.06879    1.000
    N4815    N        0.79762    0.41096    0.07177    1.000
    N4816    N        0.85803    0.42979    0.09574    1.000
    N4817    N        0.75599    0.45344    0.10952    1.000
    Si4818   Si       0.96159    0.44604    0.08873    1.000
    N4819    N        0.92162    0.45401    0.10439    1.000
    N4820    N        0.97231    0.40759    0.10521    1.000
    N4821    N        0.91844    0.50379    0.05621    1.000
    N4822    N        0.73941    0.25656    0.08334    1.000
    Si4823   Si       0.85476    0.35777    0.05800    1.000
    Si4824   Si       0.85651    0.43530    0.05315    1.000
    N4825    N        0.78653    0.33640    0.15144    1.000
    N4826    N        0.83717    0.29250    0.12663    1.000
    Si4827   Si       0.81328    0.32782    0.11712    1.000
    Si4828   Si       0.74418    0.34934    0.14752    1.000
    N4829    N        0.77517    0.25896    0.14029    1.000
    Si4830   Si       0.87772    0.28316    0.13457    1.000
    N4831    N        0.90280    0.31932    0.12560    1.000
    Si4832   Si       0.97903    0.27698    0.15218    1.000
    Si4833   Si       0.88984    0.43251    0.12570    1.000
    Si4834   Si       0.91851    0.31618    0.16848    1.000
    N4835    N        0.96063    0.31258    0.16746    1.000
    Si4836   Si       0.76155    0.42317    0.13931    1.000
    N4837    N        0.80354    0.40983    0.14241    1.000
    N4838    N        0.74297    0.38671    0.12176    1.000
    N4839    N        0.88624    0.45769    0.16141    1.000
    N4840    N        0.88885    0.39072    0.13949    1.000
    Si4841   Si       0.87100    0.49806    0.15686    1.000
    Si4842   Si       0.75574    0.28653    0.11000    1.000
    N4843    N        0.95579    0.27239    0.11600    1.000
    Si4844   Si       0.78481    0.33323    0.19638    1.000
    N4845    N        0.75148    0.30606    0.19717    1.000
    N4846    N        0.81465    0.32172    0.22659    1.000
    N4847    N        0.78047    0.37597    0.20146    1.000
    N4848    N        0.84581    0.38318    0.19745    1.000
    N4849    N        0.90199    0.34487    0.19443    1.000
    N4850    N        0.98147    0.37464    0.19422    1.000
    N4851    N        0.89760    0.27870    0.17367    1.000
    Si4852   Si       0.90287    0.45019    0.20095    1.000
    N4853    N        0.80472    0.43541    0.21018    1.000
    Si4854   Si       0.82832    0.47093    0.21508    1.000
    Si4855   Si       0.81046    0.40212    0.18333    1.000
    N4856    N        0.83576    0.49810    0.18170    1.000
    N4857    N        0.91452    0.40924    0.20298    1.000
    Si4858   Si       0.88575    0.38468    0.18258    1.000
    Si4859   Si       0.95037    0.39236    0.22037    1.000
    N4860    N        0.94156    0.46665    0.21527    1.000
    N4861    N        0.86832    0.45623    0.22716    1.000
    Si4862   Si       0.98028    0.45882    0.22824    1.000
    N4863    N        0.73982    0.43037    0.17361    1.000
    N4864    N        0.77437    0.28901    0.27240    1.000
    N4865    N        0.84371    0.27895    0.27756    1.000
    Si4866   Si       0.80916    0.28603    0.24933    1.000
    Si4867   Si       0.83601    0.36110    0.23385    1.000
    N4868    N        0.87235    0.34819    0.25562    1.000
    N4869    N        0.93980    0.36137    0.24791    1.000
    Si4870   Si       0.97139    0.35186    0.27634    1.000
    Si4871   Si       0.95142    0.26846    0.25144    1.000
    N4872    N        0.92036    0.29539    0.24153    1.000
    Si4873   Si       0.90724    0.33625    0.23635    1.000
    N4874    N        0.81388    0.38765    0.26038    1.000
    N4875    N        0.82330    0.49069    0.25271    1.000
    Si4876   Si       0.78398    0.41613    0.24647    1.000
    N4877    N        0.77920    0.44518    0.27834    1.000
    Si4878   Si       0.78986    0.48809    0.28060    1.000
    N4879    N        0.74043    0.40573    0.24207    1.000
    N4880    N        0.98212    0.41494    0.24091    1.000
    Si4881   Si       0.86494    0.48053    0.26407    1.000
    N4882    N        0.83151    0.34874    0.31610    1.000
    Si4883   Si       0.76148    0.28733    0.31253    1.000
    N4884    N        0.77097    0.32046    0.33865    1.000
    Si4885   Si       0.81602    0.32153    0.34715    1.000
    Si4886   Si       0.75346    0.36075    0.34711    1.000
    N4887    N        0.84129    0.28474    0.34737    1.000
    Si4888   Si       0.86850    0.28496    0.31126    1.000
    N4889    N        0.89308    0.31963    0.31513    1.000
    Si4890   Si       0.93442    0.31608    0.32961    1.000
    Si4891   Si       0.87082    0.35324    0.29741    1.000
    N4892    N        0.96262    0.31537    0.29748    1.000
    N4893    N        0.93849    0.27554    0.34476    1.000
    Si4894   Si       0.97488    0.37796    0.34655    1.000
    N4895    N        0.97712    0.38533    0.30414    1.000
    Si4896   Si       0.81074    0.38660    0.30421    1.000
    N4897    N        0.76615    0.38769    0.31478    1.000
    N4898    N        0.79568    0.49613    0.32179    1.000
    N4899    N        0.82450    0.41468    0.33451    1.000
    Si4900   Si       0.75438    0.42850    0.30958    1.000
    N4901    N        0.76314    0.44731    0.34904    1.000
    N4902    N        0.86903    0.46314    0.30199    1.000
    N4903    N        0.93379    0.49163    0.30545    1.000
    Si4904   Si       0.97800    0.48415    0.30545    1.000
    Si4905   Si       0.86515    0.42551    0.32619    1.000
    N4906    N        0.98045    0.44581    0.32368    1.000
    N4907    N        0.88160    0.39447    0.30298    1.000
    Si4908   Si       0.90085    0.47493    0.32840    1.000
    N4909    N        0.82264    0.32760    0.38818    1.000
    Si4910   Si       0.85737    0.30004    0.38899    1.000
    N4911    N        0.89291    0.50486    0.35751    1.000
    Si4912   Si       0.80180    0.35949    0.40882    1.000
    Si4913   Si       0.92331    0.35223    0.39340    1.000
    Si4914   Si       0.96919    0.26870    0.37692    1.000
    N4915    N        0.89410    0.32167    0.39283    1.000
    N4916    N        0.94175    0.34911    0.35447    1.000
    N4917    N        0.98863    0.30176    0.40221    1.000
    N4918    N        0.78044    0.37973    0.37829    1.000
    Si4919   Si       0.79252    0.42059    0.36619    1.000
    N4920    N        0.80066    0.44401    0.40277    1.000
    N4921    N        0.74355    0.48657    0.39492    1.000
    Si4922   Si       0.76456    0.49146    0.35586    1.000
    N4923    N        0.96267    0.41143    0.37401    1.000
    Si4924   Si       0.92173    0.42322    0.38239    1.000
    N4925    N        0.90269    0.39004    0.40286    1.000
    N4926    N        0.89742    0.43754    0.35152    1.000
    N4927    N        0.77163    0.34059    0.43457    1.000
    N4928    N        0.75085    0.27290    0.44058    1.000
    N4929    N        0.81839    0.26308    0.46750    1.000
    N4930    N        0.95083    0.35142    0.42887    1.000
    Si4931   Si       0.97698    0.32006    0.44215    1.000
    Si4932   Si       0.87495    0.38793    0.43521    1.000
    N4933    N        0.77204    0.50539    0.44372    1.000
    N4934    N        0.83078    0.38612    0.42752    1.000
    Si4935   Si       0.82690    0.42849    0.43254    1.000
    Si4936   Si       0.77121    0.46705    0.42370    1.000
    N4937    N        0.74951    0.43483    0.44616    1.000
    N4938    N        0.97658    0.48020    0.45344    1.000
    N4939    N        0.86971    0.43270    0.44138    1.000
    Si4940   Si       0.96818    0.38158    0.45395    1.000
    N4941    N        0.93061    0.45495    0.41023    1.000
    Si4942   Si       0.96383    0.48207    0.41167    1.000
    Si4943   Si       0.90956    0.44556    0.44686    1.000
    N4944    N        0.86109    0.26468    0.41101    1.000
    N4945    N        0.76839    0.31062    0.49468    1.000
    Si4946   Si       0.84243    0.28698    0.49469    1.000
    N4947    N        0.83069    0.32785    0.48027    1.000
    Si4948   Si       0.77689    0.27294    0.47552    1.000
    Si4949   Si       0.79048    0.34329    0.47285    1.000
    N4950    N        0.78725    0.38199    0.49340    1.000
    N4951    N        0.94186    0.41729    0.46169    1.000
    Si4952   Si       0.86450    0.34523    0.49813    1.000
    N4953    N        0.88261    0.30394    0.50174    1.000
    N4954    N        0.95646    0.36506    0.49340    1.000
    N4955    N        0.88559    0.37447    0.47579    1.000
    Si4956   Si       0.98385    0.27971    0.50882    1.000
    Si4957   Si       0.82650    0.46917    0.50179    1.000
    N4958    N        0.74959    0.49544    0.50345    1.000
    Si4959   Si       0.77377    0.42420    0.48197    1.000
    N4960    N        0.74850    0.42540    0.51820    1.000
    N4961    N        0.81104    0.44554    0.46939    1.000
    N4962    N        0.98504    0.44669    0.51182    1.000
    Si4963   Si       0.89988    0.49127    0.51348    1.000
    Si4964   Si       0.97965    0.43973    0.46989    1.000
    Si4965   Si       0.92225    0.39289    0.49491    1.000
    N4966    N        0.91069    0.48004    0.47395    1.000
    N4967    N        0.96822    0.28731    0.46843    1.000
    N4968    N        0.76618    0.28379    0.56643    1.000
    N4969    N        0.82667    0.27778    0.53420    1.000
    Si4970   Si       0.80413    0.26583    0.56964    1.000
    N4971    N        0.79018    0.37572    0.56734    1.000
    Si4972   Si       0.74365    0.26178    0.53517    1.000
    N4973    N        0.85658    0.35692    0.53959    1.000
    Si4974   Si       0.83340    0.38117    0.56796    1.000
    N4975    N        0.89025    0.29911    0.56953    1.000
    Si4976   Si       0.88002    0.33941    0.57184    1.000
    Si4977   Si       0.90494    0.28308    0.53257    1.000
    N4978    N        0.94661    0.28192    0.53099    1.000
    N4979    N        0.91243    0.36635    0.58247    1.000
    Si4980   Si       0.76751    0.38471    0.53033    1.000
    Si4981   Si       0.75767    0.46407    0.53351    1.000
    N4982    N        0.80186    0.45651    0.53571    1.000
    Si4983   Si       0.83841    0.45886    0.55942    1.000
    N4984    N        0.85415    0.41911    0.56897    1.000
    N4985    N        0.73929    0.48389    0.56761    1.000
    N4986    N        0.91751    0.41196    0.53339    1.000
    N4987    N        0.93405    0.48130    0.53883    1.000
    Si4988   Si       0.89856    0.40615    0.57206    1.000
    Si4989   Si       0.95087    0.44124    0.53896    1.000
    N4990    N        0.97220    0.42511    0.57411    1.000
    N4991    N        0.86313    0.47123    0.52554    1.000
    N4992    N        0.77035    0.32280    0.61936    1.000
    N4993    N        0.84963    0.35572    0.60001    1.000
    Si4994   Si       0.77420    0.36540    0.60664    1.000
    N4995    N        0.81885    0.27192    0.61002    1.000
    Si4996   Si       0.74225    0.29466    0.60006    1.000
    Si4997   Si       0.80291    0.29939    0.63856    1.000
    Si4998   Si       0.84057    0.36381    0.64011    1.000
    N4999    N        0.98240    0.35841    0.59483    1.000
    N5000    N        0.93514    0.30766    0.62027    1.000
    Si5001   Si       0.90394    0.27954    0.60791    1.000
    Si5002   Si       0.94167    0.34973    0.61033    1.000
    Si5003   Si       0.97030    0.29097    0.63788    1.000
    Si5004   Si       0.98251    0.46095    0.59806    1.000
    N5005    N        0.79937    0.38271    0.63915    1.000
    N5006    N        0.83152    0.48877    0.59018    1.000
    Si5007   Si       0.91606    0.46244    0.63230    1.000
    N5008    N        0.87892    0.48258    0.63883    1.000
    N5009    N        0.94407    0.48142    0.60678    1.000
    N5010    N        0.90519    0.42457    0.61101    1.000
    N5011    N        0.78682    0.27315    0.66850    1.000
    N5012    N        0.83675    0.32326    0.65347    1.000
    Si5013   Si       0.74501    0.26352    0.66516    1.000
    Si5014   Si       0.86660    0.29772    0.67169    1.000
    N5015    N        0.93165    0.36923    0.64795    1.000
    N5016    N        0.97832    0.32456    0.66740    1.000
    N5017    N        0.90310    0.31826    0.68552    1.000
    Si5018   Si       0.94048    0.33987    0.67936    1.000
    N5019    N        0.81212    0.45086    0.66031    1.000
    N5020    N        0.74888    0.41626    0.67838    1.000
    Si5021   Si       0.79293    0.41315    0.66882    1.000
    Si5022   Si       0.85370    0.46718    0.67138    1.000
    Si5023   Si       0.79572    0.49024    0.66423    1.000
    N5024    N        0.83310    0.50416    0.68374    1.000
    N5025    N        0.76559    0.48641    0.69507    1.000
    Si5026   Si       0.90472    0.40062    0.64609    1.000
    N5027    N        0.98143    0.44779    0.69630    1.000
    N5028    N        0.91941    0.43707    0.66891    1.000
    N5029    N        0.86670    0.38883    0.66157    1.000
    N5030    N        0.76189    0.35158    0.70130    1.000
    N5031    N        0.87665    0.26786    0.64196    1.000
    N5032    N        0.77765    0.29027    0.73071    1.000
    Si5033   Si       0.78821    0.37093    0.72928    1.000
    Si5034   Si       0.80667    0.26650    0.70483    1.000
    Si5035   Si       0.74637    0.31377    0.71323    1.000
    N5036    N        0.81036    0.34623    0.75557    1.000
    N5037    N        0.84753    0.27917    0.70510    1.000
    N5038    N        0.93764    0.42081    0.73838    1.000
    Si5039   Si       0.86604    0.27353    0.74380    1.000
    N5040    N        0.87278    0.37196    0.72995    1.000
    N5041    N        0.94109    0.35444    0.71989    1.000
    Si5042   Si       0.90169    0.33645    0.72584    1.000
    N5043    N        0.89513    0.30378    0.75274    1.000
    Si5044   Si       0.95906    0.38462    0.74495    1.000
    N5045    N        0.75668    0.39621    0.74714    1.000
    N5046    N        0.81331    0.39551    0.70401    1.000
    N5047    N        0.86293    0.44417    0.70781    1.000
    Si5048   Si       0.86190    0.47025    0.74328    1.000
    Si5049   Si       0.85558    0.40263    0.70275    1.000
    Si5050   Si       0.91249    0.50212    0.75269    1.000
    N5051    N        0.93301    0.49148    0.71569    1.000
    Si5052   Si       0.93968    0.44939    0.70541    1.000
    N5053    N        0.76903    0.31074    0.79675    1.000
    N5054    N        0.83340    0.28206    0.77327    1.000
    Si5055   Si       0.79786    0.30583    0.76473    1.000
    Si5056   Si       0.84801    0.36525    0.76474    1.000
    N5057    N        0.86935    0.34644    0.79642    1.000
    Si5058   Si       0.97955    0.32949    0.79777    1.000
    Si5059   Si       0.89600    0.31308    0.79791    1.000
    N5060    N        0.97102    0.37155    0.78621    1.000
    N5061    N        0.93708    0.32028    0.80930    1.000
    N5062    N        0.88122    0.27576    0.81594    1.000
    N5063    N        0.82665    0.47004    0.76938    1.000
    Si5064   Si       0.81999    0.43721    0.79923    1.000
    N5065    N        0.77652    0.43629    0.79983    1.000
    N5066    N        0.84141    0.40024    0.78755    1.000
    Si5067   Si       0.75836    0.47665    0.80806    1.000
    Si5068   Si       0.74455    0.41123    0.78562    1.000
    Si5069   Si       0.95501    0.39962    0.81391    1.000
    Si5070   Si       0.92303    0.43509    0.77711    1.000
    N5071    N        0.96092    0.43999    0.79925    1.000
    N5072    N        0.89550    0.46620    0.76942    1.000
    N5073    N        0.91214    0.40020    0.80317    1.000
    Si5074   Si       0.87337    0.38489    0.81329    1.000
    Si5075   Si       0.81657    0.51054    0.78496    1.000
    N5076    N        0.98654    0.25359    0.78977    1.000
    N5077    N        0.75360    0.33005    0.86271    1.000
    Si5078   Si       0.74903    0.29732    0.83402    1.000
    N5079    N        0.75687    0.25967    0.85239    1.000
    Si5080   Si       0.94541    0.31329    0.85294    1.000
    N5081    N        0.90334    0.32223    0.86513    1.000
    N5082    N        0.94595    0.26830    0.85109    1.000
    Si5083   Si       0.98482    0.26448    0.83242    1.000
    Si5084   Si       0.90296    0.25805    0.85018    1.000
    N5085    N        0.85169    0.45156    0.83043    1.000
    N5086    N        0.75523    0.40519    0.86933    1.000
    N5087    N        0.84471    0.50375    0.87138    1.000
    Si5088   Si       0.80257    0.50782    0.86111    1.000
    N5089    N        0.79235    0.50013    0.81918    1.000
    Si5090   Si       0.86861    0.42906    0.86588    1.000
    N5091    N        0.96531    0.39776    0.85539    1.000
    Si5092   Si       0.86580    0.49215    0.83451    1.000
    N5093    N        0.90758    0.49931    0.84529    1.000
    N5094    N        0.86717    0.38812    0.85513    1.000
    N5095    N        0.90901    0.43937    0.87815    1.000
    Si5096   Si       0.74878    0.44944    0.87419    1.000
    N5097    N        0.79885    0.28585    0.89960    1.000
    Si5098   Si       0.77550    0.32378    0.89981    1.000
    N5099    N        0.79824    0.35828    0.91180    1.000
    N5100    N        0.85960    0.33519    0.90843    1.000
    N5101    N        0.90238    0.49588    0.91876    1.000
    Si5102   Si       0.88864    0.30183    0.90065    1.000
    Si5103   Si       0.94080    0.34255    0.92643    1.000
    N5104    N        0.96411    0.32807    0.89076    1.000
    N5105    N        0.91863    0.37283    0.90470    1.000
    Si5106   Si       0.88419    0.35870    0.88036    1.000
    N5107    N        0.88081    0.26066    0.88916    1.000
    Si5108   Si       0.86041    0.50761    0.91238    1.000
    N5109    N        0.78252    0.47496    0.88221    1.000
    N5110    N        0.84404    0.43579    0.89839    1.000
    Si5111   Si       0.80921    0.45715    0.91216    1.000
    Si5112   Si       0.77196    0.39207    0.90780    1.000
    N5113    N        0.78603    0.42508    0.93315    1.000
    N5114    N        0.82595    0.49115    0.93411    1.000
    Si5115   Si       0.92031    0.48070    0.88199    1.000
    Si5116   Si       0.93664    0.40846    0.88977    1.000
    Si5117   Si       0.98492    0.45079    0.90982    1.000
    N5118    N        0.95686    0.42164    0.92723    1.000
    N5119    N        0.96441    0.48062    0.88357    1.000
    N5120    N        0.91700    0.30674    0.93237    1.000
    N5121    N        0.75110    0.31944    0.93589    1.000
    N5122    N        0.82299    0.31371    0.96313    1.000
    Si5123   Si       0.81122    0.27814    0.94064    1.000
    N5124    N        0.77634    0.26081    0.96324    1.000
    Si5125   Si       0.83261    0.34759    0.93748    1.000
    N5126    N        0.83773    0.38071    0.96589    1.000
    N5127    N        0.96313    0.28762    0.98041    1.000
    N5128    N        0.96019    0.35971    0.96230    1.000
    Si5129   Si       0.92542    0.27582    0.96361    1.000
    N5130    N        0.87378    0.50751    0.98716    1.000
    Si5131   Si       0.74784    0.43876    0.94986    1.000
    N5132    N        0.76102    0.47977    0.96171    1.000
    Si5133   Si       0.80879    0.41254    0.96887    1.000
    N5134    N        0.83986    0.44133    0.98087    1.000
    Si5135   Si       0.79656    0.50587    0.96223    1.000
    Si5136   Si       0.90803    0.50581    0.96122    1.000
    N5137    N        0.90901    0.40237    0.97745    1.000
    N5138    N        0.93622    0.48409    0.98601    1.000
    Si5139   Si       0.86736    0.40581    0.99017    1.000
    Si5140   Si       0.95087    0.40298    0.96609    1.000
    N5141    N        0.97786    0.43035    0.98834    1.000
    Si5142   Si       0.98133    0.47383    0.98239    1.000
    Si5143   Si       0.96714    0.33118    0.99290    1.000
    N5144    N        0.76948    0.54104    0.04097    1.000
    Si5145   Si       0.85017    0.54058    0.00282    1.000
    N5146    N        0.81377    0.51241    0.00234    1.000
    N5147    N        0.86719    0.54660    0.04450    1.000
    N5148    N        0.94514    0.56237    0.02223    1.000
    Si5149   Si       0.91032    0.54491    0.04350    1.000
    N5150    N        0.76143    0.72808    0.03707    1.000
    N5151    N        0.82684    0.65921    0.02813    1.000
    Si5152   Si       0.82195    0.71772    0.02222    1.000
    N5153    N        0.76251    0.63994    0.00204    1.000
    Si5154   Si       0.74036    0.73872    0.00017    1.000
    Si5155   Si       0.86720    0.66905    0.02100    1.000
    N5156    N        0.86321    0.71121    0.00794    1.000
    N5157    N        0.88193    0.63249    0.00004    1.000
    N5158    N        0.92673    0.73358    0.03341    1.000
    N5159    N        0.94027    0.66865    0.01107    1.000
    Si5160   Si       0.92595    0.69151    0.04475    1.000
    Si5161   Si       0.98208    0.67816    0.00146    1.000
    Si5162   Si       0.89350    0.74313    0.00574    1.000
    N5163    N        0.98808    0.73959    0.05747    1.000
    Si5164   Si       0.78318    0.55174    0.08071    1.000
    N5165    N        0.81377    0.52115    0.07849    1.000
    Si5166   Si       0.76818    0.62187    0.09089    1.000
    N5167    N        0.79695    0.58962    0.09644    1.000
    Si5168   Si       0.85361    0.53553    0.08671    1.000
    N5169    N        0.74344    0.60587    0.05821    1.000
    N5170    N        0.86032    0.57313    0.10725    1.000
    N5171    N        0.92281    0.56342    0.07895    1.000
    N5172    N        0.97871    0.61525    0.06332    1.000
    Si5173   Si       0.96305    0.57290    0.06026    1.000
    Si5174   Si       0.98608    0.51345    0.11101    1.000
    N5175    N        0.91750    0.62553    0.09991    1.000
    Si5176   Si       0.90337    0.58412    0.11030    1.000
    Si5177   Si       0.75107    0.69847    0.06790    1.000
    Si5178   Si       0.81604    0.66712    0.06795    1.000
    Si5179   Si       0.82340    0.73502    0.10191    1.000
    N5180    N        0.77393    0.66100    0.07723    1.000
    N5181    N        0.84346    0.64682    0.09549    1.000
    N5182    N        0.81912    0.70997    0.06592    1.000
    N5183    N        0.74073    0.71792    0.10608    1.000
    N5184    N        0.95153    0.68291    0.07928    1.000
    Si5185   Si       0.96894    0.72038    0.09268    1.000
    N5186    N        0.88977    0.67411    0.05597    1.000
    Si5187   Si       0.95836    0.64134    0.09252    1.000
    N5188    N        0.94144    0.74812    0.10983    1.000
    Si5189   Si       0.88737    0.65509    0.09383    1.000
    N5190    N        0.80809    0.56129    0.15694    1.000
    Si5191   Si       0.76647    0.54524    0.15557    1.000
    Si5192   Si       0.82472    0.59067    0.13049    1.000
    N5193    N        0.82377    0.62802    0.15164    1.000
    N5194    N        0.89068    0.73876    0.16201    1.000
    N5195    N        0.76088    0.53453    0.11304    1.000
    Si5196   Si       0.93400    0.53425    0.16146    1.000
    N5197    N        0.92395    0.57270    0.14629    1.000
    N5198    N        0.94465    0.51375    0.12475    1.000
    N5199    N        0.88466    0.67779    0.13333    1.000
    Si5200   Si       0.84281    0.66634    0.13450    1.000
    N5201    N        0.81848    0.70330    0.13466    1.000
    N5202    N        0.94820    0.69752    0.16459    1.000
    N5203    N        0.98171    0.64720    0.12788    1.000
    Si5204   Si       0.90593    0.69753    0.16262    1.000
    N5205    N        0.75699    0.64258    0.17701    1.000
    N5206    N        0.87491    0.50936    0.11394    1.000
    N5207    N        0.77386    0.52559    0.19614    1.000
    Si5208   Si       0.81726    0.53592    0.19190    1.000
    N5209    N        0.80291    0.60795    0.21777    1.000
    N5210    N        0.84493    0.55447    0.21948    1.000
    Si5211   Si       0.74434    0.51928    0.22751    1.000
    N5212    N        0.96642    0.53303    0.19113    1.000
    Si5213   Si       0.88758    0.53828    0.22154    1.000
    N5214    N        0.89776    0.52118    0.18041    1.000
    N5215    N        0.86944    0.62099    0.22304    1.000
    Si5216   Si       0.95977    0.55622    0.22859    1.000
    N5217    N        0.98779    0.58793    0.22744    1.000
    Si5218   Si       0.79753    0.63474    0.18577    1.000
    N5219    N        0.82442    0.74882    0.18360    1.000
    N5220    N        0.81599    0.67599    0.19685    1.000
    N5221    N        0.76287    0.71669    0.18632    1.000
    Si5222   Si       0.74505    0.67944    0.20204    1.000
    Si5223   Si       0.85425    0.66011    0.21334    1.000
    N5224    N        0.94070    0.64235    0.23013    1.000
    Si5225   Si       0.80279    0.71188    0.17375    1.000
    Si5226   Si       0.91956    0.68000    0.23126    1.000
    Si5227   Si       0.96824    0.72565    0.19211    1.000
    N5228    N        0.95002    0.71197    0.22722    1.000
    N5229    N        0.88922    0.68091    0.20055    1.000
    N5230    N        0.91658    0.56909    0.22781    1.000
    N5231    N        0.83793    0.60337    0.27888    1.000
    N5232    N        0.75798    0.51635    0.26791    1.000
    Si5233   Si       0.83860    0.59331    0.23550    1.000
    N5234    N        0.96570    0.53607    0.26694    1.000
    N5235    N        0.90051    0.62026    0.28037    1.000
    N5236    N        0.89124    0.51358    0.25694    1.000
    Si5237   Si       0.92601    0.52705    0.28225    1.000
    Si5238   Si       0.90954    0.61157    0.23719    1.000
    Si5239   Si       0.93756    0.72420    0.26725    1.000
    N5240    N        0.80902    0.73019    0.24557    1.000
    Si5241   Si       0.80394    0.68840    0.23990    1.000
    Si5242   Si       0.74976    0.67785    0.28067    1.000
    N5243    N        0.76299    0.67346    0.24012    1.000
    N5244    N        0.84067    0.66919    0.25457    1.000
    Si5245   Si       0.86171    0.64058    0.28022    1.000
    Si5246   Si       0.98279    0.63104    0.23459    1.000
    N5247    N        0.90057    0.70184    0.26367    1.000
    Si5248   Si       0.82845    0.58536    0.31692    1.000
    N5249    N        0.79252    0.56026    0.30986    1.000
    Si5250   Si       0.81196    0.53180    0.33845    1.000
    N5251    N        0.84872    0.55248    0.33516    1.000
    Si5252   Si       0.75383    0.54324    0.30156    1.000
    N5253    N        0.81292    0.61429    0.34640    1.000
    N5254    N        0.73810    0.52600    0.33819    1.000
    Si5255   Si       0.77190    0.63079    0.34459    1.000
    N5256    N        0.90324    0.73330    0.32286    1.000
    N5257    N        0.91578    0.55788    0.30955    1.000
    Si5258   Si       0.91896    0.60105    0.31456    1.000
    N5259    N        0.95662    0.60951    0.33736    1.000
    Si5260   Si       0.89012    0.54704    0.34486    1.000
    N5261    N        0.88768    0.60909    0.34413    1.000
    N5262    N        0.75663    0.63982    0.30214    1.000
    N5263    N        0.77582    0.70836    0.29651    1.000
    N5264    N        0.84162    0.73180    0.31157    1.000
    Si5265   Si       0.76857    0.70568    0.34043    1.000
    Si5266   Si       0.93819    0.70873    0.33355    1.000
    N5267    N        0.86747    0.66927    0.31304    1.000
    N5268    N        0.95912    0.70055    0.29578    1.000
    Si5269   Si       0.87584    0.70844    0.29830    1.000
    Si5270   Si       0.80545    0.73939    0.28823    1.000
    N5271    N        0.79331    0.52513    0.37575    1.000
    Si5272   Si       0.82831    0.62258    0.38515    1.000
    N5273    N        0.85410    0.59481    0.40524    1.000
    N5274    N        0.96783    0.72847    0.35698    1.000
    Si5275   Si       0.95501    0.55645    0.39956    1.000
    N5276    N        0.91469    0.55988    0.38025    1.000
    Si5277   Si       0.89347    0.59648    0.38477    1.000
    Si5278   Si       0.90055    0.51550    0.39784    1.000
    N5279    N        0.92395    0.62411    0.39564    1.000
    N5280    N        0.98682    0.55424    0.37117    1.000
    N5281    N        0.79659    0.73283    0.35945    1.000
    N5282    N        0.85699    0.65672    0.38260    1.000
    N5283    N        0.76554    0.66931    0.36256    1.000
    Si5284   Si       0.83741    0.74278    0.35410    1.000
    N5285    N        0.85619    0.72706    0.38986    1.000
    Si5286   Si       0.76387    0.66326    0.40532    1.000
    N5287    N        0.91910    0.75321    0.39948    1.000
    Si5288   Si       0.88367    0.65244    0.34870    1.000
    Si5289   Si       0.95199    0.64319    0.36751    1.000
    N5290    N        0.78983    0.62915    0.40663    1.000
    N5291    N        0.92440    0.67230    0.34956    1.000
    N5292    N        0.79951    0.56697    0.43162    1.000
    Si5293   Si       0.78883    0.60774    0.44606    1.000
    Si5294   Si       0.84232    0.56364    0.43270    1.000
    N5295    N        0.74971    0.61168    0.46071    1.000
    Si5296   Si       0.77322    0.53648    0.41180    1.000
    N5297    N        0.86676    0.52698    0.42020    1.000
    N5298    N        0.96397    0.58216    0.43171    1.000
    N5299    N        0.94026    0.51801    0.41760    1.000
    Si5300   Si       0.94103    0.50745    0.46000    1.000
    N5301    N        0.78876    0.75301    0.46331    1.000
    N5302    N        0.84886    0.69072    0.44732    1.000
    Si5303   Si       0.75955    0.72562    0.45083    1.000
    N5304    N        0.77663    0.68900    0.43758    1.000
    N5305    N        0.74767    0.74544    0.41146    1.000
    Si5306   Si       0.81084    0.67631    0.46086    1.000
    Si5307   Si       0.88870    0.68713    0.46684    1.000
    N5308    N        0.96643    0.71157    0.43992    1.000
    N5309    N        0.95422    0.64441    0.45410    1.000
    Si5310   Si       0.91761    0.64433    0.43220    1.000
    Si5311   Si       0.92684    0.72240    0.42875    1.000
    N5312    N        0.90699    0.68429    0.42419    1.000
    Si5313   Si       0.98569    0.67474    0.45571    1.000
    N5314    N        0.88710    0.63966    0.46183    1.000
    N5315    N        0.81603    0.63355    0.46764    1.000
    Si5316   Si       0.86642    0.68913    0.40814    1.000
    N5317    N        0.77607    0.55680    0.49890    1.000
    Si5318   Si       0.85292    0.54163    0.50017    1.000
    Si5319   Si       0.78132    0.51876    0.48234    1.000
    Si5320   Si       0.85438    0.61922    0.47920    1.000
    N5321    N        0.85554    0.57519    0.47317    1.000
    N5322    N        0.82253    0.51207    0.49615    1.000
    Si5323   Si       0.74112    0.57863    0.48890    1.000
    N5324    N        0.85790    0.62814    0.52089    1.000
    N5325    N        0.92706    0.59198    0.50146    1.000
    N5326    N        0.96036    0.53550    0.48715    1.000
    Si5327   Si       0.93526    0.55222    0.51744    1.000
    N5328    N        0.89345    0.53491    0.51776    1.000
    Si5329   Si       0.95361    0.60340    0.47077    1.000
    Si5330   Si       0.90187    0.61798    0.52494    1.000
    Si5331   Si       0.80987    0.74039    0.49842    1.000
    N5332    N        0.81436    0.69630    0.50178    1.000
    N5333    N        0.75582    0.67027    0.52422    1.000
    Si5334   Si       0.84417    0.67152    0.52423    1.000
    N5335    N        0.88305    0.68852    0.51003    1.000
    N5336    N        0.95099    0.71287    0.51130    1.000
    Si5337   Si       0.93808    0.74630    0.49247    1.000
    N5338    N        0.90515    0.73136    0.46544    1.000
    N5339    N        0.78018    0.53805    0.56582    1.000
    N5340    N        0.79171    0.60637    0.53985    1.000
    Si5341   Si       0.83651    0.60552    0.55006    1.000
    N5342    N        0.84021    0.56141    0.54001    1.000
    Si5343   Si       0.79569    0.56251    0.53556    1.000
    Si5344   Si       0.75725    0.62925    0.53861    1.000
    Si5345   Si       0.87908    0.55243    0.55767    1.000
    N5346    N        0.89430    0.59241    0.56236    1.000
    N5347    N        0.95229    0.54623    0.55678    1.000
    Si5348   Si       0.98113    0.57484    0.57278    1.000
    Si5349   Si       0.93417    0.50895    0.57557    1.000
    Si5350   Si       0.92057    0.69121    0.53293    1.000
    N5351    N        0.74223    0.64153    0.57906    1.000
    Si5352   Si       0.78619    0.69678    0.54059    1.000
    N5353    N        0.82223    0.67585    0.55940    1.000
    N5354    N        0.78466    0.74113    0.53233    1.000
    N5355    N        0.76029    0.70960    0.57635    1.000
    Si5356   Si       0.74753    0.75091    0.55212    1.000
    N5357    N        0.92964    0.64874    0.54005    1.000
    N5358    N        0.91425    0.71752    0.56568    1.000
    Si5359   Si       0.96458    0.64515    0.56528    1.000
    Si5360   Si       0.90595    0.75906    0.55744    1.000
    N5361    N        0.89220    0.51956    0.58035    1.000
    Si5362   Si       0.82298    0.58761    0.62143    1.000
    N5363    N        0.77998    0.58717    0.62575    1.000
    N5364    N        0.83663    0.54609    0.61332    1.000
    N5365    N        0.83538    0.61444    0.59177    1.000
    Si5366   Si       0.74761    0.60838    0.60558    1.000
    Si5367   Si       0.80372    0.52122    0.59718    1.000
    N5368    N        0.78119    0.51396    0.63182    1.000
    Si5369   Si       0.86260    0.51123    0.61068    1.000
    N5370    N        0.96907    0.57749    0.61407    1.000
    N5371    N        0.89973    0.60143    0.63184    1.000
    Si5372   Si       0.89963    0.62294    0.59367    1.000
    Si5373   Si       0.94494    0.61079    0.63746    1.000
    N5374    N        0.94302    0.63415    0.60049    1.000
    N5375    N        0.81554    0.68489    0.62316    1.000
    Si5376   Si       0.78641    0.71625    0.61202    1.000
    Si5377   Si       0.83611    0.65915    0.59675    1.000
    N5378    N        0.80896    0.75122    0.59982    1.000
    N5379    N        0.86975    0.72593    0.61936    1.000
    Si5380   Si       0.90157    0.70131    0.60492    1.000
    N5381    N        0.88070    0.66223    0.59828    1.000
    N5382    N        0.93221    0.70900    0.63540    1.000
    N5383    N        0.83967    0.59535    0.66288    1.000
    N5384    N        0.78700    0.55132    0.68637    1.000
    Si5385   Si       0.76662    0.55276    0.64920    1.000
    Si5386   Si       0.80998    0.58718    0.69498    1.000
    Si5387   Si       0.93360    0.52893    0.69249    1.000
    Si5388   Si       0.88139    0.58439    0.66745    1.000
    N5389    N        0.89116    0.54439    0.67889    1.000
    N5390    N        0.95013    0.58267    0.67196    1.000
    N5391    N        0.96518    0.51578    0.66437    1.000
    Si5392   Si       0.97626    0.55380    0.64957    1.000
    Si5393   Si       0.78390    0.71852    0.68562    1.000
    N5394    N        0.82212    0.73043    0.67222    1.000
    N5395    N        0.75983    0.71553    0.64957    1.000
    Si5396   Si       0.84645    0.70452    0.64860    1.000
    Si5397   Si       0.91821    0.68171    0.66727    1.000
    N5398    N        0.96239    0.75633    0.68423    1.000
    N5399    N        0.87517    0.68405    0.67382    1.000
    N5400    N        0.94287    0.64689    0.66593    1.000
    Si5401   Si       0.97656    0.65213    0.69181    1.000
    N5402    N        0.88083    0.75537    0.69700    1.000
    Si5403   Si       0.96454    0.73585    0.64355    1.000
    N5404    N        0.84294    0.57024    0.72194    1.000
    Si5405   Si       0.77079    0.52456    0.71582    1.000
    Si5406   Si       0.85578    0.53292    0.70513    1.000
    N5407    N        0.77876    0.61515    0.70243    1.000
    N5408    N        0.92351    0.70091    0.70659    1.000
    Si5409   Si       0.86813    0.60123    0.73421    1.000
    N5410    N        0.94245    0.55539    0.72688    1.000
    N5411    N        0.96734    0.62408    0.72531    1.000
    Si5412   Si       0.93736    0.59673    0.71037    1.000
    N5413    N        0.89687    0.60679    0.70365    1.000
    N5414    N        0.87257    0.51219    0.73748    1.000
    N5415    N        0.83977    0.63332    0.74289    1.000
    N5416    N        0.76469    0.74735    0.71037    1.000
    N5417    N        0.85034    0.70323    0.73888    1.000
    N5418    N        0.78924    0.68049    0.70716    1.000
    Si5419   Si       0.75556    0.65211    0.70658    1.000
    Si5420   Si       0.81820    0.67093    0.73817    1.000
    N5421    N        0.95716    0.73859    0.75517    1.000
    Si5422   Si       0.87961    0.71120    0.70789    1.000
    Si5423   Si       0.96125    0.72350    0.71535    1.000
    Si5424   Si       0.84372    0.62279    0.78700    1.000
    N5425    N        0.85301    0.52347    0.80645    1.000
    N5426    N        0.75362    0.57399    0.79488    1.000
    N5427    N        0.82646    0.58921    0.80579    1.000
    Si5428   Si       0.74569    0.54020    0.76895    1.000
    Si5429   Si       0.98842    0.61538    0.76249    1.000
    Si5430   Si       0.86326    0.56522    0.80861    1.000
    N5431    N        0.88060    0.59734    0.77572    1.000
    N5432    N        0.95766    0.58988    0.78386    1.000
    Si5433   Si       0.91716    0.60127    0.79860    1.000
    N5434    N        0.93425    0.52201    0.78354    1.000
    Si5435   Si       0.96134    0.54919    0.76328    1.000
    Si5436   Si       0.81304    0.68093    0.81116    1.000
    N5437    N        0.79228    0.67255    0.77434    1.000
    Si5438   Si       0.74937    0.67480    0.77976    1.000
    N5439    N        0.82929    0.71888    0.80513    1.000
    N5440    N        0.84970    0.65850    0.80878    1.000
    Si5441   Si       0.85817    0.72516    0.77663    1.000
    N5442    N        0.74081    0.64056    0.80724    1.000
    N5443    N        0.89746    0.70886    0.79051    1.000
    N5444    N        0.98704    0.65041    0.78814    1.000
    Si5445   Si       0.89016    0.67565    0.81603    1.000
    Si5446   Si       0.91785    0.74314    0.77454    1.000
    N5447    N        0.91847    0.64274    0.81268    1.000
    N5448    N        0.78508    0.52467    0.75728    1.000
    N5449    N        0.77969    0.60894    0.85185    1.000
    N5450    N        0.78778    0.54732    0.86445    1.000
    Si5451   Si       0.78661    0.57643    0.82350    1.000
    N5452    N        0.96502    0.61325    0.84425    1.000
    N5453    N        0.96883    0.54159    0.84284    1.000
    Si5454   Si       0.93021    0.53043    0.82518    1.000
    N5455    N        0.90384    0.56751    0.82322    1.000
    Si5456   Si       0.97998    0.57966    0.82506    1.000
    Si5457   Si       0.82351    0.74911    0.83924    1.000
    Si5458   Si       0.74978    0.73785    0.83075    1.000
    N5459    N        0.78559    0.67414    0.84302    1.000
    Si5460   Si       0.75728    0.64364    0.84667    1.000
    N5461    N        0.74595    0.72257    0.86939    1.000
    N5462    N        0.81998    0.71944    0.87225    1.000
    N5463    N        0.96655    0.74874    0.85960    1.000
    Si5464   Si       0.96017    0.64890    0.82127    1.000
    N5465    N        0.96234    0.68328    0.84786    1.000
    N5466    N        0.89084    0.69460    0.85633    1.000
    Si5467   Si       0.92961    0.68503    0.87634    1.000
    N5468    N        0.81318    0.59970    0.91197    1.000
    Si5469   Si       0.78121    0.58304    0.88712    1.000
    N5470    N        0.74623    0.59166    0.91502    1.000
    N5471    N        0.86252    0.55023    0.92122    1.000
    N5472    N        0.93183    0.57985    0.89836    1.000
    Si5473   Si       0.95463    0.61361    0.88590    1.000
    Si5474   Si       0.90032    0.57196    0.92567    1.000
    Si5475   Si       0.81558    0.64172    0.91885    1.000
    N5476    N        0.78662    0.67753    0.91613    1.000
    N5477    N        0.85234    0.66109    0.90263    1.000
    N5478    N        0.79133    0.74364    0.93274    1.000
    Si5479   Si       0.83275    0.75286    0.91864    1.000
    Si5480   Si       0.85662    0.69943    0.88417    1.000
    Si5481   Si       0.78259    0.69951    0.87899    1.000
    Si5482   Si       0.94900    0.75674    0.89868    1.000
    N5483    N        0.86446    0.72334    0.91722    1.000
    Si5484   Si       0.88985    0.64670    0.91768    1.000
    N5485    N        0.93191    0.71565    0.90702    1.000
    N5486    N        0.92411    0.64604    0.89068    1.000
    Si5487   Si       0.90182    0.71245    0.93690    1.000
    N5488    N        0.84087    0.57479    0.97945    1.000
    Si5489   Si       0.85554    0.61509    0.97157    1.000
    Si5490   Si       0.74896    0.56133    0.94305    1.000
    N5491    N        0.78883    0.54435    0.94569    1.000
    Si5492   Si       0.82505    0.56542    0.93812    1.000
    N5493    N        0.91826    0.54892    0.95931    1.000
    N5494    N        0.94516    0.61394    0.96888    1.000
    Si5495   Si       0.94594    0.57209    0.98033    1.000
    N5496    N        0.88200    0.60917    0.93725    1.000
    Si5497   Si       0.77734    0.70522    0.94926    1.000
    N5498    N        0.82249    0.64082    0.96088    1.000
    N5499    N        0.79906    0.70005    0.98739    1.000
    Si5500   Si       0.91927    0.64557    0.98201    1.000
    N5501    N        0.90509    0.67086    0.95050    1.000
    Si5502   Si       0.98963    0.61153    0.95187    1.000
    Si5503   Si       0.95327    0.75032    0.97375    1.000
    N5504    N        0.97917    0.71801    0.98655    1.000
    N5505    N        0.90952    0.74790    0.96476    1.000
    Si5506   Si       0.80098    0.65718    0.99466    1.000
    Si5507   Si       0.84392    0.79594    0.02665    1.000
    N5508    N        0.77290    0.80830    0.04584    1.000
    Si5509   Si       0.78030    0.81256    0.00301    1.000
    Si5510   Si       0.78172    0.76588    0.04925    1.000
    N5511    N        0.81883    0.76133    0.02513    1.000
    N5512    N        0.82267    0.82010    0.99706    1.000
    N5513    N        0.88431    0.78421    0.01785    1.000
    N5514    N        0.92684    0.84599    0.01626    1.000
    Si5515   Si       0.95679    0.76310    0.04021    1.000
    N5516    N        0.95403    0.78388    0.00029    1.000
    Si5517   Si       0.91673    0.80812    0.99927    1.000
    N5518    N        0.86901    0.88992    0.99878    1.000
    Si5519   Si       0.84588    0.93017    0.00201    1.000
    N5520    N        0.81745    0.93362    0.03263    1.000
    Si5521   Si       0.75187    0.00437    0.02523    1.000
    Si5522   Si       0.81157    0.97158    0.05169    1.000
    N5523    N        0.97129    0.95730    0.04526    1.000
    N5524    N        0.92463    0.97314    0.99890    1.000
    Si5525   Si       0.93304    0.94168    0.02744    1.000
    Si5526   Si       0.90416    0.88455    0.02529    1.000
    N5527    N        0.94248    0.90432    0.00800    1.000
    Si5528   Si       0.88923    0.98760    0.02280    1.000
    N5529    N        0.89763    0.92214    0.04840    1.000
    N5530    N        0.78936    0.00809    0.04624    1.000
    Si5531   Si       0.82230    0.79818    0.10035    1.000
    N5532    N        0.84512    0.81564    0.06555    1.000
    N5533    N        0.74182    0.84000    0.10808    1.000
    N5534    N        0.79088    0.76645    0.09333    1.000
    Si5535   Si       0.77850    0.86337    0.10943    1.000
    Si5536   Si       0.86074    0.84890    0.08734    1.000
    Si5537   Si       0.75186    0.75888    0.11082    1.000
    N5538    N        0.91189    0.98133    0.06199    1.000
    Si5539   Si       0.95244    0.78994    0.10380    1.000
    N5540    N        0.89825    0.86249    0.06912    1.000
    N5541    N        0.94243    0.79786    0.06323    1.000
    N5542    N        0.97130    0.85334    0.07527    1.000
    Si5543   Si       0.93434    0.84107    0.05866    1.000
    N5544    N        0.77452    0.88706    0.07322    1.000
    N5545    N        0.80101    0.95185    0.09010    1.000
    Si5546   Si       0.80876    0.91414    0.06953    1.000
    N5547    N        0.84185    0.88945    0.08200    1.000
    Si5548   Si       0.87986    0.99108    0.09094    1.000
    Si5549   Si       0.95099    0.97657    0.07769    1.000
    N5550    N        0.95291    0.95324    0.11210    1.000
    Si5551   Si       0.88275    0.90368    0.08422    1.000
    N5552    N        0.81086    0.83604    0.11486    1.000
    N5553    N        0.84893    0.99218    0.05735    1.000
    N5554    N        0.74892    0.78077    0.14840    1.000
    N5555    N        0.84831    0.76651    0.11816    1.000
    Si5556   Si       0.83321    0.87180    0.14763    1.000
    Si5557   Si       0.85678    0.76414    0.15998    1.000
    N5558    N        0.94567    0.94196    0.17201    1.000
    N5559    N        0.86787    0.85380    0.12989    1.000
    Si5560   Si       0.89418    0.82818    0.15268    1.000
    N5561    N        0.92217    0.80315    0.13256    1.000
    Si5562   Si       0.92381    0.76184    0.14835    1.000
    Si5563   Si       0.81281    0.97601    0.12095    1.000
    N5564    N        0.79629    0.96220    0.15952    1.000
    N5565    N        0.79314    0.89201    0.14068    1.000
    Si5566   Si       0.77226    0.92563    0.15701    1.000
    N5567    N        0.85529    0.96892    0.12035    1.000
    N5568    N        0.85257    0.90569    0.16894    1.000
    N5569    N        0.96368    0.88536    0.13644    1.000
    Si5570   Si       0.96972    0.97014    0.14858    1.000
    Si5571   Si       0.93939    0.91993    0.13412    1.000
    Si5572   Si       0.87012    0.94130    0.14905    1.000
    N5573    N        0.89703    0.91913    0.12346    1.000
    N5574    N        0.77202    0.78419    0.21394    1.000
    N5575    N        0.82028    0.84925    0.18727    1.000
    Si5576   Si       0.84920    0.82572    0.20750    1.000
    Si5577   Si       0.74874    0.82163    0.21795    1.000
    Si5578   Si       0.81152    0.76584    0.22191    1.000
    Si5579   Si       0.74823    0.75957    0.18733    1.000
    Si5580   Si       0.79570    0.87779    0.20842    1.000
    N5581    N        0.73966    0.84277    0.18020    1.000
    Si5582   Si       0.96712    0.79695    0.20305    1.000
    N5583    N        0.95677    0.76379    0.17738    1.000
    Si5584   Si       0.91988    0.85486    0.22310    1.000
    N5585    N        0.91615    0.85460    0.17859    1.000
    N5586    N        0.87541    0.85814    0.22794    1.000
    N5587    N        0.96082    0.87981    0.21664    1.000
    N5588    N        0.86974    0.80284    0.17646    1.000
    Si5589   Si       0.95696    0.86586    0.17510    1.000
    N5590    N        0.93339    0.81178    0.22633    1.000
    N5591    N        0.97818    0.82946    0.17579    1.000
    N5592    N        0.82954    0.99741    0.21844    1.000
    Si5593   Si       0.79319    0.98754    0.19415    1.000
    N5594    N        0.75963    0.90662    0.19672    1.000
    Si5595   Si       0.86194    0.89703    0.20935    1.000
    N5596    N        0.77751    0.96662    0.22918    1.000
    N5597    N        0.89508    0.92305    0.22068    1.000
    N5598    N        0.88332    0.97212    0.17976    1.000
    Si5599   Si       0.91535    0.95417    0.20206    1.000
    N5600    N        0.94485    0.98311    0.22235    1.000
    Si5601   Si       0.86446    0.00788    0.19752    1.000
    Si5602   Si       0.77036    0.86889    0.27715    1.000
    Si5603   Si       0.84804    0.79915    0.27857    1.000
    N5604    N        0.83715    0.79685    0.23664    1.000
    N5605    N        0.77322    0.85401    0.23753    1.000
    N5606    N        0.84755    0.84115    0.28801    1.000
    Si5607   Si       0.98415    0.97620    0.23862    1.000
    Si5608   Si       0.92784    0.80472    0.26912    1.000
    Si5609   Si       0.87764    0.86572    0.27169    1.000
    N5610    N        0.91921    0.85541    0.27010    1.000
    N5611    N        0.94869    0.76555    0.27278    1.000
    N5612    N        0.82460    0.90018    0.23285    1.000
    N5613    N        0.82028    0.95323    0.28517    1.000
    N5614    N        0.75168    0.90799    0.27258    1.000
    Si5615   Si       0.82758    0.91195    0.27636    1.000
    Si5616   Si       0.81006    0.98230    0.25634    1.000
    Si5617   Si       0.98827    0.78575    0.27126    1.000
    N5618    N        0.86919    0.90267    0.29136    1.000
    Si5619   Si       0.74932    0.00427    0.28784    1.000
    Si5620   Si       0.75311    0.93286    0.23386    1.000
    Si5621   Si       0.78168    0.80658    0.31854    1.000
    Si5622   Si       0.83029    0.86191    0.32275    1.000
    N5623    N        0.75735    0.83583    0.29773    1.000
    N5624    N        0.81241    0.82826    0.34159    1.000
    N5625    N        0.80644    0.78196    0.29226    1.000
    N5626    N        0.85684    0.88144    0.35014    1.000
    N5627    N        0.94831    0.86031    0.33368    1.000
    Si5628   Si       0.89851    0.77556    0.33187    1.000
    Si5629   Si       0.96380    0.82012    0.33271    1.000
    N5630    N        0.93084    0.00897    0.32137    1.000
    Si5631   Si       0.88123    0.91349    0.33466    1.000
    N5632    N        0.86590    0.95325    0.34120    1.000
    N5633    N        0.93684    0.78929    0.34547    1.000
    Si5634   Si       0.83718    0.97583    0.31741    1.000
    N5635    N        0.80880    0.99207    0.34577    1.000
    N5636    N        0.74948    0.96483    0.30736    1.000
    N5637    N        0.80298    0.88779    0.30014    1.000
    Si5638   Si       0.76147    0.92276    0.31419    1.000
    N5639    N        0.85841    0.00687    0.29079    1.000
    Si5640   Si       0.95607    0.86387    0.28962    1.000
    N5641    N        0.96731    0.82024    0.28877    1.000
    N5642    N        0.89067    0.79348    0.29015    1.000
    Si5643   Si       0.83120    0.80867    0.37487    1.000
    N5644    N        0.80324    0.78611    0.40034    1.000
    N5645    N        0.84516    0.83695    0.40418    1.000
    Si5646   Si       0.85714    0.87745    0.39162    1.000
    Si5647   Si       0.77221    0.76294    0.37999    1.000
    N5648    N        0.86293    0.78093    0.36192    1.000
    N5649    N        0.97654    0.97071    0.37575    1.000
    Si5650   Si       0.87720    0.76403    0.40142    1.000
    N5651    N        0.96425    0.84966    0.39597    1.000
    Si5652   Si       0.93594    0.87555    0.37234    1.000
    Si5653   Si       0.95439    0.76401    0.37756    1.000
    N5654    N        0.89930    0.87850    0.40327    1.000
    N5655    N        0.98093    0.77974    0.40644    1.000
    Si5656   Si       0.78788    0.91712    0.39111    1.000
    N5657    N        0.74728    0.89708    0.39786    1.000
    Si5658   Si       0.77302    0.97005    0.36007    1.000
    N5659    N        0.77629    0.95824    0.40401    1.000
    N5660    N        0.82847    0.90801    0.40615    1.000
    N5661    N        0.91601    0.97637    0.38858    1.000
    Si5662   Si       0.87339    0.97782    0.37466    1.000
    Si5663   Si       0.94383    0.94020    0.38455    1.000
    Si5664   Si       0.95446    0.00468    0.35993    1.000
    N5665    N        0.92144    0.91586    0.35475    1.000
    N5666    N        0.75735    0.78517    0.34673    1.000
    N5667    N        0.78609    0.92927    0.35035    1.000
    Si5668   Si       0.78826    0.78979    0.44147    1.000
    Si5669   Si       0.84949    0.82153    0.44538    1.000
    N5670    N        0.75273    0.81385    0.45056    1.000
    N5671    N        0.81340    0.81888    0.46430    1.000
    N5672    N        0.77266    0.88454    0.46352    1.000
    N5673    N        0.86632    0.78158    0.44010    1.000
    Si5674   Si       0.96504    0.87510    0.43220    1.000
    N5675    N        0.93756    0.87144    0.46384    1.000
    Si5676   Si       0.89824    0.88232    0.44829    1.000
    Si5677   Si       0.74002    0.90172    0.43923    1.000
    Si5678   Si       0.75369    0.97736    0.43536    1.000
    Si5679   Si       0.84463    0.93692    0.43233    1.000
    N5680    N        0.85209    0.97402    0.41127    1.000
    N5681    N        0.81635    0.94375    0.46456    1.000
    N5682    N        0.74563    0.94103    0.46215    1.000
    N5683    N        0.96194    0.91600    0.41439    1.000
    N5684    N        0.88041    0.92152    0.45490    1.000
    N5685    N        0.94559    0.99019    0.45219    1.000
    N5686    N        0.76609    0.84208    0.51698    1.000
    N5687    N        0.84416    0.76611    0.50175    1.000
    Si5688   Si       0.77617    0.84365    0.47542    1.000
    N5689    N        0.83251    0.87920    0.51554    1.000
    Si5690   Si       0.87079    0.86060    0.50533    1.000
    Si5691   Si       0.94144    0.87680    0.50698    1.000
    N5692    N        0.91065    0.77288    0.51501    1.000
    Si5693   Si       0.87962    0.76559    0.47781    1.000
    N5694    N        0.96865    0.76883    0.47358    1.000
    Si5695   Si       0.88777    0.93102    0.49921    1.000
    Si5696   Si       0.82343    0.97192    0.49533    1.000
    Si5697   Si       0.78208    0.92381    0.47989    1.000
    N5698    N        0.78553    0.99549    0.50893    1.000
    N5699    N        0.78830    0.93523    0.52051    1.000
    N5700    N        0.85187    0.94995    0.51900    1.000
    N5701    N        0.90034    0.89135    0.51315    1.000
    N5702    N        0.92173    0.95519    0.51026    1.000
    N5703    N        0.97579    0.98477    0.50944    1.000
    Si5704   Si       0.93444    0.99225    0.49485    1.000
    N5705    N        0.97460    0.90730    0.50978    1.000
    N5706    N        0.87413    0.85121    0.46384    1.000
    Si5707   Si       0.98639    0.98513    0.46568    1.000
    Si5708   Si       0.80331    0.85398    0.53721    1.000
    N5709    N        0.81330    0.81379    0.55339    1.000
    Si5710   Si       0.84583    0.79301    0.53613    1.000
    N5711    N        0.86474    0.76994    0.56646    1.000
    N5712    N        0.79909    0.88599    0.56766    1.000
    Si5713   Si       0.96134    0.94487    0.52819    1.000
    N5714    N        0.95597    0.94246    0.57024    1.000
    Si5715   Si       0.98549    0.83053    0.54812    1.000
    Si5716   Si       0.91471    0.81358    0.53625    1.000
    N5717    N        0.92780    0.79196    0.57448    1.000
    N5718    N        0.94726    0.84093    0.53324    1.000
    N5719    N        0.87530    0.82630    0.52955    1.000
    Si5720   Si       0.82149    0.91515    0.54012    1.000
    Si5721   Si       0.85507    0.97061    0.55777    1.000
    Si5722   Si       0.76695    0.96903    0.53780    1.000
    N5723    N        0.75548    0.00298    0.56600    1.000
    N5724    N        0.76763    0.94618    0.58269    1.000
    N5725    N        0.84396    0.92381    0.58093    1.000
    N5726    N        0.81962    0.98974    0.57558    1.000
    N5727    N        0.79061    0.81487    0.61944    1.000
    N5728    N        0.85358    0.85862    0.61170    1.000
    Si5729   Si       0.74798    0.79966    0.62408    1.000
    Si5730   Si       0.83072    0.82883    0.63515    1.000
    N5731    N        0.85492    0.79297    0.63314    1.000
    Si5732   Si       0.85109    0.76141    0.60488    1.000
    Si5733   Si       0.94046    0.80247    0.61444    1.000
    N5734    N        0.93587    0.84600    0.61699    1.000
    Si5735   Si       0.89708    0.86509    0.62570    1.000
    Si5736   Si       0.97717    0.85602    0.62758    1.000
    N5737    N        0.97390    0.76833    0.61735    1.000
    Si5738   Si       0.82672    0.89052    0.60102    1.000
    N5739    N        0.79413    0.89730    0.62824    1.000
    Si5740   Si       0.78223    0.98387    0.59350    1.000
    N5741    N        0.77657    0.99765    0.63257    1.000
    Si5742   Si       0.76956    0.90574    0.59306    1.000
    N5743    N        0.98037    0.89901    0.63004    1.000
    N5744    N        0.90782    0.90340    0.60915    1.000
    Si5745   Si       0.93146    0.97310    0.58979    1.000
    Si5746   Si       0.87589    0.93421    0.61022    1.000
    Si5747   Si       0.94815    0.91836    0.60756    1.000
    N5748    N        0.93793    0.95810    0.62966    1.000
    N5749    N        0.75121    0.77769    0.58615    1.000
    Si5750   Si       0.79298    0.78955    0.58434    1.000
    N5751    N        0.88847    0.96691    0.58437    1.000
    N5752    N        0.81602    0.84491    0.67343    1.000
    N5753    N        0.74670    0.85813    0.66090    1.000
    Si5754   Si       0.78668    0.87802    0.66737    1.000
    Si5755   Si       0.88001    0.78838    0.66764    1.000
    Si5756   Si       0.95476    0.79893    0.67821    1.000
    N5757    N        0.88725    0.87325    0.67028    1.000
    N5758    N        0.92105    0.79246    0.65173    1.000
    N5759    N        0.98515    0.82559    0.65875    1.000
    N5760    N        0.98477    0.94591    0.68257    1.000
    Si5761   Si       0.76584    0.97569    0.66950    1.000
    Si5762   Si       0.84419    0.97549    0.67156    1.000
    N5763    N        0.80590    0.96985    0.68829    1.000
    N5764    N        0.74517    0.00658    0.69213    1.000
    N5765    N        0.85955    0.94028    0.65041    1.000
    N5766    N        0.94101    0.99716    0.69751    1.000
    Si5767   Si       0.87514    0.91445    0.68064    1.000
    Si5768   Si       0.94354    0.95958    0.67162    1.000
    N5769    N        0.91608    0.92998    0.68944    1.000
    Si5770   Si       0.77453    0.78373    0.73198    1.000
    N5771    N        0.82644    0.86104    0.74318    1.000
    N5772    N        0.81820    0.79146    0.72998    1.000
    Si5773   Si       0.81258    0.83091    0.71300    1.000
    N5774    N        0.76787    0.82470    0.71703    1.000
    Si5775   Si       0.85967    0.77977    0.72699    1.000
    Si5776   Si       0.96670    0.85619    0.73287    1.000
    N5777    N        0.90592    0.87415    0.73847    1.000
    N5778    N        0.94032    0.82936    0.70677    1.000
    Si5779   Si       0.89927    0.84789    0.70412    1.000
    Si5780   Si       0.81433    0.90120    0.73402    1.000
    N5781    N        0.85202    0.92060    0.71855    1.000
    N5782    N        0.78367    0.90218    0.70280    1.000
    N5783    N        0.78018    0.98881    0.75641    1.000
    Si5784   Si       0.74404    0.91914    0.70124    1.000
    N5785    N        0.90919    0.94480    0.75206    1.000
    N5786    N        0.97801    0.96975    0.74677    1.000
    N5787    N        0.87369    0.98427    0.70295    1.000
    Si5788   Si       0.97679    0.00403    0.71969    1.000
    Si5789   Si       0.86949    0.95624    0.73785    1.000
    N5790    N        0.96528    0.90049    0.72961    1.000
    Si5791   Si       0.92292    0.91224    0.72885    1.000
    N5792    N        0.87247    0.81518    0.70262    1.000
    Si5793   Si       0.83815    0.84635    0.78036    1.000
    N5794    N        0.75886    0.78226    0.77179    1.000
    N5795    N        0.80569    0.82614    0.79869    1.000
    Si5796   Si       0.77327    0.79960    0.80820    1.000
    N5797    N        0.83978    0.87760    0.81146    1.000
    N5798    N        0.87895    0.83118    0.78568    1.000
    N5799    N        0.95556    0.84882    0.77427    1.000
    Si5800   Si       0.91269    0.85680    0.77772    1.000
    N5801    N        0.92247    0.77045    0.80700    1.000
    Si5802   Si       0.88290    0.79023    0.79866    1.000
    Si5803   Si       0.98822    0.86264    0.79839    1.000
    N5804    N        0.87515    0.76329    0.76388    1.000
    N5805    N        0.90896    0.88252    0.81367    1.000
    Si5806   Si       0.76397    0.95022    0.76565    1.000
    N5807    N        0.85373    0.97969    0.77010    1.000
    Si5808   Si       0.81197    0.91299    0.80733    1.000
    N5809    N        0.79900    0.92377    0.76762    1.000
    N5810    N        0.74444    0.95258    0.80432    1.000
    Si5811   Si       0.94359    0.96292    0.77320    1.000
    N5812    N        0.95641    0.93375    0.80292    1.000
    N5813    N        0.93048    0.99950    0.78643    1.000
    N5814    N        0.81602    0.00530    0.81318    1.000
    Si5815   Si       0.84989    0.97768    0.81614    1.000
    Si5816   Si       0.84496    0.80756    0.85633    1.000
    N5817    N        0.81656    0.83907    0.86503    1.000
    Si5818   Si       0.79216    0.85330    0.83204    1.000
    N5819    N        0.75355    0.83033    0.83194    1.000
    N5820    N        0.85300    0.77676    0.82577    1.000
    N5821    N        0.78492    0.76543    0.83103    1.000
    N5822    N        0.95274    0.81313    0.84945    1.000
    N5823    N        0.88315    0.82819    0.85541    1.000
    Si5824   Si       0.87547    0.86656    0.83583    1.000
    Si5825   Si       0.95902    0.77698    0.82815    1.000
    Si5826   Si       0.91937    0.81762    0.87402    1.000
    Si5827   Si       0.98674    0.84137    0.85315    1.000
    N5828    N        0.97208    0.88031    0.83644    1.000
    Si5829   Si       0.73873    0.91387    0.82891    1.000
    N5830    N        0.83241    0.94281    0.83191    1.000
    Si5831   Si       0.84466    0.92674    0.87043    1.000
    N5832    N        0.74161    0.92395    0.87009    1.000
    N5833    N        0.77750    0.89441    0.82444    1.000
    Si5834   Si       0.93818    0.90713    0.83185    1.000
    Si5835   Si       0.90500    0.96826    0.87023    1.000
    N5836    N        0.88673    0.98916    0.83713    1.000
    N5837    N        0.87199    0.89325    0.87084    1.000
    N5838    N        0.92975    0.93104    0.86967    1.000
    N5839    N        0.76632    0.86239    0.90700    1.000
    Si5840   Si       0.80546    0.84301    0.90639    1.000
    N5841    N        0.83261    0.77810    0.88422    1.000
    N5842    N        0.91564    0.78435    0.90090    1.000
    Si5843   Si       0.96856    0.86178    0.91390    1.000
    N5844    N        0.92999    0.85353    0.89806    1.000
    N5845    N        0.96892    0.76338    0.93539    1.000
    Si5846   Si       0.90054    0.91058    0.89659    1.000
    Si5847   Si       0.78127    0.00676    0.91366    1.000
    N5848    N        0.80980    0.92017    0.89420    1.000
    Si5849   Si       0.76942    0.90446    0.89651    1.000
    N5850    N        0.92028    0.99816    0.89863    1.000
    Si5851   Si       0.80459    0.93846    0.93375    1.000
    N5852    N        0.81268    0.98110    0.93340    1.000
    N5853    N        0.87408    0.94673    0.89385    1.000
    N5854    N        0.98660    0.90187    0.90938    1.000
    Si5855   Si       0.95999    0.00598    0.91302    1.000
    N5856    N        0.98248    0.96704    0.91910    1.000
    Si5857   Si       0.97314    0.93714    0.88865    1.000
    N5858    N        0.74364    0.98558    0.91530    1.000
    N5859    N        0.83916    0.85243    0.93487    1.000
    Si5860   Si       0.82904    0.81431    0.95612    1.000
    N5861    N        0.75434    0.84279    0.98621    1.000
    N5862    N        0.76280    0.77472    0.98755    1.000
    N5863    N        0.85103    0.77772    0.94854    1.000
    Si5864   Si       0.75175    0.83935    0.94138    1.000
    Si5865   Si       0.76791    0.77668    0.94465    1.000
    Si5866   Si       0.95933    0.99821    0.99080    1.000
    N5867    N        0.76370    0.92369    0.93658    1.000
    N5868    N        0.95542    0.85759    0.95435    1.000
    N5869    N        0.90292    0.81801    0.95920    1.000
    Si5870   Si       0.91465    0.85426    0.93977    1.000
    Si5871   Si       0.95902    0.86730    0.99544    1.000
    N5872    N        0.76138    0.00116    0.98341    1.000
    Si5873   Si       0.85573    0.88558    0.95692    1.000
    N5874    N        0.85881    0.96991    0.99497    1.000
    Si5875   Si       0.84357    0.99389    0.96221    1.000
    N5876    N        0.82865    0.91869    0.96301    1.000
    Si5877   Si       0.89419    0.77884    0.93874    1.000
    N5878    N        0.89416    0.89309    0.93660    1.000
    N5879    N        0.79005    0.81363    0.93554    1.000
