# CIF file generated by openbabel 3.1.1, see https://openbabel.org
data_I
_chemical_name_common '3.01-9.aims'
_cell_length_a 39.9826
_cell_length_b 39.9826
_cell_length_c 39.9826
_cell_angle_alpha 90
_cell_angle_beta 90
_cell_angle_gamma 90
loop_
    _atom_site_label
    _atom_site_type_symbol
    _atom_site_fract_x
    _atom_site_fract_y
    _atom_site_fract_z
    _atom_site_occupancy
    Si0      Si       0.04227    0.04054    0.03696    1.000
    N1       N        0.03190    0.08033    0.02397    1.000
    N2       N        0.08497    0.04536    0.03899    1.000
    N3       N        0.02504    0.00809    0.01519    1.000
    N4       N        0.13954    0.05126    0.00319    1.000
    N5       N        0.12592    0.11356    0.01619    1.000
    Si6      Si       0.21229    0.04163    0.04453    1.000
    Si7      Si       0.15486    0.08224    0.02823    1.000
    N8       N        0.19876    0.07976    0.02850    1.000
    N9       N        0.19717    0.01021    0.01545    1.000
    Si10     Si       0.21367    0.10468    0.99842    1.000
    N11      N        0.06366    0.14251    0.01976    1.000
    Si12     Si       0.10470    0.14542    0.03729    1.000
    Si13     Si       0.02983    0.16105    0.04282    1.000
    N14      N        0.01028    0.24338    0.04276    1.000
    Si15     Si       0.01885    0.22233    0.00706    1.000
    N16      N        0.06270    0.22418    0.00357    1.000
    N17      N        0.00636    0.18021    0.01308    1.000
    Si18     Si       0.08089    0.20962    0.03975    1.000
    N19      N        0.11553    0.18579    0.02434    1.000
    N20      N        0.22938    0.14053    0.01834    1.000
    N21      N        0.21528    0.24554    0.02893    1.000
    N22      N        0.15254    0.24011    0.02616    1.000
    Si23     Si       0.15614    0.19651    0.02792    1.000
    N24      N        0.17469    0.16665    0.05810    1.000
    N25      N        0.06784    0.10274    0.08761    1.000
    N26      N        0.02104    0.05169    0.07538    1.000
    Si27     Si       0.03144    0.09403    0.06654    1.000
    Si28     Si       0.03596    0.03580    0.11323    1.000
    N29      N        0.00793    0.13206    0.06453    1.000
    Si30     Si       0.11632    0.03932    0.06874    1.000
    N31      N        0.19226    0.02625    0.08202    1.000
    N32      N        0.14636    0.07269    0.06944    1.000
    Si33     Si       0.16572    0.05083    0.10452    1.000
    N34      N        0.22743    0.12762    0.08856    1.000
    Si35     Si       0.03824    0.19996    0.10581    1.000
    N36      N        0.05142    0.19032    0.06571    1.000
    Si37     Si       0.08354    0.14000    0.10727    1.000
    N38      N        0.99353    0.20110    0.10092    1.000
    N39      N        0.09355    0.24519    0.05890    1.000
    Si40     Si       0.13355    0.25296    0.07250    1.000
    N41      N        0.11288    0.15473    0.08021    1.000
    N42      N        0.14930    0.21787    0.09186    1.000
    Si43     Si       0.21695    0.15614    0.05731    1.000
    Si44     Si       0.14917    0.17260    0.09232    1.000
    N45      N        0.05768    0.06155    0.14004    1.000
    N46      N        0.10382    0.11403    0.13578    1.000
    Si47     Si       0.09705    0.01228    0.13958    1.000
    N48      N        0.99536    0.02575    0.12570    1.000
    Si49     Si       0.09172    0.07906    0.11897    1.000
    N50      N        0.19196    0.07049    0.13527    1.000
    Si51     Si       0.21957    0.10360    0.12646    1.000
    N52      N        0.16574    0.01141    0.15898    1.000
    Si53     Si       0.18995    0.04705    0.17012    1.000
    N54      N        0.11917    0.04359    0.11620    1.000
    N55      N        0.06453    0.17108    0.12918    1.000
    Si56     Si       0.06377    0.18206    0.17084    1.000
    N57      N        0.05511    0.23738    0.11922    1.000
    Si58     Si       0.23222    0.17949    0.15955    1.000
    N59      N        0.16055    0.17351    0.13355    1.000
    Si60     Si       0.17535    0.21403    0.12571    1.000
    N61      N        0.16206    0.24048    0.15757    1.000
    N62      N        0.21817    0.20843    0.12793    1.000
    N63      N        0.21419    0.13778    0.15493    1.000
    Si64     Si       0.17076    0.16167    0.17363    1.000
    N65      N        0.08619    0.08911    0.19556    1.000
    N66      N        0.02872    0.05121    0.20924    1.000
    Si67     Si       0.00140    0.08624    0.20458    1.000
    N68      N        0.02374    0.12302    0.19467    1.000
    Si69     Si       0.06242    0.12081    0.21435    1.000
    Si70     Si       0.06370    0.05662    0.18281    1.000
    N71      N        0.08713    0.02223    0.18071    1.000
    Si72     Si       0.11036    0.11985    0.17697    1.000
    Si73     Si       0.17081    0.10472    0.21713    1.000
    N74      N        0.17493    0.06387    0.20690    1.000
    N75      N        0.22548    0.03371    0.19444    1.000
    N76      N        0.15142    0.12453    0.18517    1.000
    Si77     Si       0.20161    0.04104    0.23008    1.000
    Si78     Si       0.10593    0.18355    0.21744    1.000
    N79      N        0.08046    0.21329    0.19934    1.000
    N80      N        0.08467    0.15178    0.19433    1.000
    Si81     Si       0.00398    0.23137    0.18341    1.000
    Si82     Si       0.00012    0.15597    0.17981    1.000
    Si83     Si       0.06568    0.24983    0.21700    1.000
    N84      N        0.02114    0.19229    0.17205    1.000
    N85      N        0.20878    0.25585    0.19299    1.000
    N86      N        0.14452    0.18888    0.19925    1.000
    Si87     Si       0.17674    0.22130    0.19536    1.000
    Si88     Si       0.21823    0.16706    0.22919    1.000
    N89      N        0.20469    0.18548    0.19467    1.000
    N90      N        0.07021    0.11823    0.25574    1.000
    Si91     Si       0.03282    0.02601    0.24443    1.000
    Si92     Si       0.10842    0.10844    0.27247    1.000
    N93      N        0.01575    0.04155    0.27984    1.000
    N94      N        0.07298    0.01569    0.25106    1.000
    Si95     Si       0.09589    0.02584    0.28525    1.000
    N96      N        0.99090    0.09973    0.24399    1.000
    Si97     Si       0.99089    0.07763    0.27997    1.000
    N98      N        0.10411    0.06884    0.28611    1.000
    N99      N        0.14582    0.11493    0.25132    1.000
    N100     N        0.22189    0.05270    0.26773    1.000
    Si101    Si       0.21640    0.01135    0.27933    1.000
    N102     N        0.20319    0.12724    0.23479    1.000
    N103     N        0.10733    0.24102    0.26313    1.000
    Si104    Si       0.06132    0.15458    0.27524    1.000
    N105     N        0.09648    0.17660    0.25980    1.000
    Si106    Si       0.01163    0.21081    0.26011    1.000
    N107     N        0.04287    0.24465    0.25522    1.000
    N108     N        0.02764    0.17068    0.25352    1.000
    Si109    Si       0.99512    0.14259    0.24657    1.000
    Si110    Si       0.10990    0.20700    0.29108    1.000
    Si111    Si       0.17600    0.22017    0.27113    1.000
    N112     N        0.16612    0.24389    0.23276    1.000
    N113     N        0.19115    0.18139    0.26054    1.000
    Si114    Si       0.17716    0.14149    0.26775    1.000
    N115     N        0.20971    0.24944    0.27738    1.000
    N116     N        0.00438    0.09738    0.31737    1.000
    Si117    Si       0.10102    0.06809    0.33148    1.000
    N118     N        0.08997    0.02636    0.33127    1.000
    Si119    Si       0.01613    0.01362    0.31419    1.000
    N120     N        0.11285    0.12959    0.30999    1.000
    N121     N        0.99664    0.03074    0.34888    1.000
    Si122    Si       0.14970    0.11472    0.32749    1.000
    N123     N        0.14425    0.07370    0.34184    1.000
    N124     N        0.18604    0.12780    0.30688    1.000
    Si125    Si       0.00637    0.14117    0.31824    1.000
    N126     N        0.04897    0.14920    0.31596    1.000
    N127     N        0.07965    0.21999    0.31747    1.000
    N128     N        0.99613    0.21249    0.29879    1.000
    Si129    Si       0.99910    0.25493    0.31260    1.000
    Si130    Si       0.08325    0.13856    0.34007    1.000
    Si131    Si       0.07051    0.25513    0.29037    1.000
    Si132    Si       0.17396    0.21266    0.34304    1.000
    N133     N        0.18955    0.25334    0.34575    1.000
    N134     N        0.15076    0.21052    0.30551    1.000
    Si135    Si       0.20218    0.14412    0.34376    1.000
    N136     N        0.20977    0.18670    0.34048    1.000
    N137     N        0.01367    0.08619    0.38505    1.000
    Si138    Si       0.05324    0.09972    0.38964    1.000
    N139     N        0.07713    0.09571    0.35352    1.000
    Si140    Si       0.99087    0.07361    0.35153    1.000
    N141     N        0.23518    0.12144    0.35740    1.000
    Si142    Si       0.16325    0.05016    0.37209    1.000
    N143     N        0.20400    0.05599    0.38628    1.000
    Si144    Si       0.01094    0.16988    0.38930    1.000
    N145     N        0.09181    0.24262    0.38766    1.000
    Si146    Si       0.00608    0.23544    0.38367    1.000
    N147     N        0.03616    0.20562    0.37168    1.000
    Si148    Si       0.07785    0.21028    0.35979    1.000
    N149     N        0.09786    0.17112    0.36284    1.000
    N150     N        0.04449    0.14247    0.39682    1.000
    N151     N        0.99050    0.16338    0.35100    1.000
    N152     N        0.14933    0.21040    0.37812    1.000
    Si153    Si       0.13041    0.24043    0.40382    1.000
    Si154    Si       0.13630    0.16920    0.38321    1.000
    N155     N        0.15978    0.14035    0.36030    1.000
    Si156    Si       0.04634    0.05960    0.44993    1.000
    N157     N        0.03583    0.02056    0.43720    1.000
    N158     N        0.07504    0.07632    0.42124    1.000
    N159     N        0.01278    0.08879    0.45255    1.000
    N160     N        0.10282    0.01964    0.44262    1.000
    Si161    Si       0.11290    0.06135    0.43789    1.000
    Si162    Si       0.18620    0.07787    0.42077    1.000
    N163     N        0.20186    0.11747    0.41790    1.000
    Si164    Si       0.20007    0.02071    0.45513    1.000
    N165     N        0.19030    0.06108    0.46146    1.000
    N166     N        0.23663    0.01510    0.42934    1.000
    N167     N        0.14521    0.06737    0.40910    1.000
    N168     N        0.14784    0.16025    0.42287    1.000
    N169     N        0.21384    0.17804    0.45179    1.000
    N170     N        0.13744    0.24416    0.44641    1.000
    Si171    Si       0.18288    0.14782    0.44302    1.000
    Si172    Si       0.01690    0.08851    0.49571    1.000
    Si173    Si       0.09629    0.07404    0.51062    1.000
    N174     N        0.05767    0.06349    0.49191    1.000
    N175     N        0.03691    0.12389    0.50927    1.000
    N176     N        0.99840    0.05885    0.52447    1.000
    Si177    Si       0.23584    0.01171    0.52117    1.000
    Si178    Si       0.16598    0.08453    0.48944    1.000
    N179     N        0.12512    0.07742    0.47799    1.000
    N180     N        0.17181    0.12609    0.47840    1.000
    N181     N        0.23573    0.05357    0.51700    1.000
    N182     N        0.10349    0.15671    0.48347    1.000
    Si183    Si       0.07557    0.14397    0.51209    1.000
    N184     N        0.16189    0.19327    0.49890    1.000
    N185     N        0.21981    0.16519    0.51860    1.000
    Si186    Si       0.14303    0.15211    0.49850    1.000
    Si187    Si       0.20492    0.19632    0.49009    1.000
    N188     N        0.21988    0.23578    0.49766    1.000
    Si189    Si       0.01463    0.03695    0.56091    1.000
    N190     N        0.09635    0.11276    0.53253    1.000
    N191     N        0.03089    0.12883    0.58045    1.000
    N192     N        0.11581    0.04327    0.53557    1.000
    Si193    Si       0.21593    0.07891    0.54684    1.000
    Si194    Si       0.14572    0.06259    0.56298    1.000
    N195     N        0.17379    0.07769    0.53307    1.000
    Si196    Si       0.11900    0.13004    0.56652    1.000
    Si197    Si       0.08909    0.25578    0.53819    1.000
    N198     N        0.06254    0.17713    0.53888    1.000
    Si199    Si       0.02629    0.14928    0.54273    1.000
    Si200    Si       0.08588    0.19667    0.57023    1.000
    N201     N        0.00990    0.21840    0.57830    1.000
    Si202    Si       0.03414    0.25303    0.58485    1.000
    N203     N        0.11341    0.22136    0.54796    1.000
    N204     N        0.04518    0.26388    0.54169    1.000
    N205     N        0.15057    0.14953    0.54237    1.000
    Si206    Si       0.21618    0.23551    0.57675    1.000
    Si207    Si       0.19032    0.16682    0.55071    1.000
    N208     N        0.18523    0.21090    0.55852    1.000
    Si209    Si       0.15245    0.22043    0.53268    1.000
    N210     N        0.01602    0.05848    0.59654    1.000
    Si211    Si       0.00074    0.09860    0.59284    1.000
    Si212    Si       0.01632    0.03217    0.63221    1.000
    Si213    Si       0.21993    0.08046    0.62319    1.000
    Si214    Si       0.14461    0.09572    0.63191    1.000
    Si215    Si       0.13205    0.02185    0.62407    1.000
    N216     N        0.18679    0.10707    0.63424    1.000
    N217     N        0.15614    0.02860    0.58833    1.000
    N218     N        0.13381    0.09639    0.58943    1.000
    N219     N        0.21204    0.06206    0.58509    1.000
    Si220    Si       0.19907    0.02010    0.58571    1.000
    N221     N        0.07477    0.23074    0.59676    1.000
    N222     N        0.09743    0.15852    0.59382    1.000
    N223     N        0.04374    0.18305    0.62679    1.000
    Si224    Si       0.00764    0.20712    0.62064    1.000
    Si225    Si       0.05804    0.14554    0.60973    1.000
    Si226    Si       0.10791    0.25767    0.60509    1.000
    N227     N        0.02699    0.24220    0.64052    1.000
    N228     N        0.21208    0.14731    0.58406    1.000
    Si229    Si       0.19871    0.14746    0.62616    1.000
    Si230    Si       0.17613    0.21479    0.63624    1.000
    Si231    Si       0.12343    0.16391    0.62826    1.000
    N232     N        0.21250    0.23308    0.61868    1.000
    N233     N        0.14606    0.24194    0.62260    1.000
    N234     N        0.16578    0.17367    0.62398    1.000
    N235     N        0.04633    0.03335    0.66598    1.000
    Si236    Si       0.08704    0.12259    0.67503    1.000
    Si237    Si       0.01578    0.12281    0.66148    1.000
    N238     N        0.08684    0.08224    0.69219    1.000
    N239     N        0.01772    0.08727    0.69058    1.000
    N240     N        0.10648    0.01247    0.68952    1.000
    Si241    Si       0.05091    0.06083    0.69952    1.000
    N242     N        0.05572    0.12144    0.64475    1.000
    Si243    Si       0.11849    0.05380    0.68947    1.000
    N244     N        0.22967    0.05187    0.65499    1.000
    N245     N        0.12325    0.12690    0.65338    1.000
    N246     N        0.13451    0.05734    0.64714    1.000
    N247     N        0.05714    0.21366    0.68875    1.000
    N248     N        0.99982    0.15761    0.67859    1.000
    N249     N        0.10460    0.19406    0.65241    1.000
    Si250    Si       0.01652    0.24315    0.68330    1.000
    Si251    Si       0.09409    0.19286    0.69534    1.000
    Si252    Si       0.03180    0.17897    0.70120    1.000
    Si253    Si       0.06744    0.21981    0.64201    1.000
    N254     N        0.23190    0.16051    0.65431    1.000
    N255     N        0.18776    0.20701    0.67882    1.000
    Si256    Si       0.22933    0.19460    0.68176    1.000
    N257     N        0.05781    0.04159    0.73907    1.000
    N258     N        0.11362    0.13273    0.74965    1.000
    N259     N        0.20691    0.06927    0.72327    1.000
    Si260    Si       0.17437    0.03867    0.73388    1.000
    N261     N        0.14147    0.06254    0.72455    1.000
    Si262    Si       0.19564    0.11029    0.74064    1.000
    Si263    Si       0.12908    0.09228    0.75548    1.000
    N264     N        0.02483    0.16283    0.74142    1.000
    Si265    Si       0.06813    0.14665    0.74698    1.000
    N266     N        0.00033    0.21497    0.71243    1.000
    Si267    Si       0.00156    0.20060    0.75351    1.000
    N268     N        0.07298    0.15303    0.70097    1.000
    Si269    Si       0.14476    0.16560    0.75042    1.000
    N270     N        0.18159    0.15079    0.73247    1.000
    N271     N        0.18537    0.21847    0.75050    1.000
    Si272    Si       0.21827    0.16778    0.75292    1.000
    N273     N        0.12808    0.19581    0.72101    1.000
    Si274    Si       0.16493    0.22021    0.71230    1.000
    N275     N        0.04569    0.05510    0.80892    1.000
    Si276    Si       0.06485    0.07038    0.77302    1.000
    N277     N        0.10600    0.07043    0.78487    1.000
    Si278    Si       0.00525    0.12889    0.76615    1.000
    N279     N        0.99209    0.09061    0.78772    1.000
    N280     N        0.04957    0.10854    0.75854    1.000
    Si281    Si       0.18753    0.07029    0.79912    1.000
    N282     N        0.17904    0.03524    0.77659    1.000
    N283     N        0.22808    0.07274    0.80943    1.000
    N284     N        0.17004    0.10086    0.77372    1.000
    N285     N        0.23159    0.12525    0.76048    1.000
    N286     N        0.07477    0.17387    0.78069    1.000
    Si287    Si       0.10764    0.17771    0.81026    1.000
    Si288    Si       0.03728    0.19148    0.80040    1.000
    N289     N        0.00798    0.15747    0.80165    1.000
    N290     N        0.02733    0.22555    0.77622    1.000
    Si291    Si       0.18646    0.20771    0.79354    1.000
    N292     N        0.14694    0.18340    0.79119    1.000
    N293     N        0.22044    0.18165    0.79256    1.000
    N294     N        0.09512    0.07442    0.85203    1.000
    N295     N        0.03298    0.11336    0.84509    1.000
    Si296    Si       0.07484    0.11243    0.85536    1.000
    Si297    Si       0.01390    0.07868    0.82551    1.000
    Si298    Si       0.05889    0.01718    0.82182    1.000
    N299     N        0.98673    0.05466    0.85183    1.000
    N300     N        0.16300    0.08040    0.83364    1.000
    Si301    Si       0.18009    0.10441    0.86622    1.000
    N302     N        0.14414    0.01876    0.83035    1.000
    Si303    Si       0.15460    0.00963    0.87243    1.000
    Si304    Si       0.12606    0.05984    0.82218    1.000
    Si305    Si       0.99875    0.13979    0.84076    1.000
    N306     N        0.09923    0.21397    0.83197    1.000
    Si307    Si       0.06294    0.23940    0.84141    1.000
    N308     N        0.03453    0.20692    0.84158    1.000
    Si309    Si       0.99712    0.20617    0.86334    1.000
    N310     N        0.10042    0.14435    0.83873    1.000
    Si311    Si       0.11440    0.22474    0.87236    1.000
    N312     N        0.19598    0.24171    0.82161    1.000
    Si313    Si       0.18965    0.24199    0.86495    1.000
    N314     N        0.21338    0.13232    0.86123    1.000
    N315     N        0.14807    0.25104    0.86838    1.000
    N316     N        0.19909    0.20058    0.87463    1.000
    N317     N        0.06804    0.05995    0.91433    1.000
    N318     N        0.08484    0.12357    0.89927    1.000
    Si319    Si       0.08991    0.09525    0.93106    1.000
    Si320    Si       0.09330    0.04303    0.88110    1.000
    N321     N        0.19568    0.00709    0.88404    1.000
    N322     N        0.13145    0.03453    0.89678    1.000
    N323     N        0.18747    0.07670    0.89910    1.000
    Si324    Si       0.15734    0.05733    0.92312    1.000
    Si325    Si       0.21072    0.01881    0.92290    1.000
    N326     N        0.00287    0.22931    0.89928    1.000
    Si327    Si       0.01985    0.20470    0.93322    1.000
    N328     N        0.08092    0.25091    0.87726    1.000
    N329     N        0.11625    0.19038    0.89683    1.000
    Si330    Si       0.19178    0.16108    0.88926    1.000
    N331     N        0.15554    0.13731    0.88094    1.000
    Si332    Si       0.11409    0.15121    0.88210    1.000
    N333     N        0.20874    0.15633    0.92870    1.000
    N334     N        0.01137    0.11675    0.97518    1.000
    N335     N        0.01126    0.04617    0.95671    1.000
    N336     N        0.07891    0.09045    0.97328    1.000
    N337     N        0.08081    0.02257    0.97155    1.000
    Si338    Si       0.99614    0.01471    0.98346    1.000
    Si339    Si       0.99043    0.08632    0.95159    1.000
    Si340    Si       0.04956    0.03200    0.94084    1.000
    Si341    Si       0.09806    0.05533    0.99494    1.000
    Si342    Si       0.04828    0.10967    0.99467    1.000
    Si343    Si       0.13568    0.11685    0.97510    1.000
    N344     N        0.17592    0.02699    0.94800    1.000
    Si345    Si       0.16300    0.01609    0.98852    1.000
    N346     N        0.17870    0.12004    0.97979    1.000
    N347     N        0.13293    0.08899    0.94117    1.000
    N348     N        0.01169    0.23399    0.96516    1.000
    Si349    Si       0.07410    0.23651    0.96288    1.000
    N350     N        0.06295    0.20114    0.93925    1.000
    Si351    Si       0.99105    0.15584    0.98216    1.000
    Si352    Si       0.10687    0.18853    0.94074    1.000
    N353     N        0.99330    0.17253    0.94206    1.000
    Si354    Si       0.14251    0.25137    0.98440    1.000
    Si355    Si       0.17834    0.15932    0.96187    1.000
    N356     N        0.17868    0.18949    0.99378    1.000
    N357     N        0.18249    0.25259    0.96941    1.000
    N358     N        0.13147    0.15485    0.95487    1.000
    Si359    Si       0.20599    0.22350    0.99143    1.000
    N360     N        0.11699    0.22693    0.95909    1.000
    N361     N        0.06327    0.31447    0.01088    1.000
    Si362    Si       0.06219    0.32871    0.05067    1.000
    Si363    Si       0.99361    0.35571    0.05290    1.000
    N364     N        0.18703    0.31168    0.01400    1.000
    Si365    Si       0.18140    0.27252    0.03268    1.000
    Si366    Si       0.21794    0.33289    0.03031    1.000
    N367     N        0.21471    0.37398    0.01909    1.000
    N368     N        0.09162    0.39147    0.02009    1.000
    Si369    Si       0.00654    0.42034    0.02611    1.000
    Si370    Si       0.09691    0.49457    0.03283    1.000
    N371     N        0.09010    0.46758    0.00060    1.000
    N372     N        0.03498    0.42377    0.99524    1.000
    Si373    Si       0.07707    0.42654    0.99777    1.000
    N374     N        0.19745    0.49330    0.00470    1.000
    Si375    Si       0.17421    0.42603    0.04629    1.000
    Si376    Si       0.17022    0.49999    0.03823    1.000
    N377     N        0.17500    0.42873    0.00358    1.000
    N378     N        0.10178    0.33849    0.06548    1.000
    N379     N        0.04621    0.29480    0.07496    1.000
    Si380    Si       0.07343    0.26552    0.09181    1.000
    Si381    Si       0.00574    0.28247    0.06131    1.000
    N382     N        0.03622    0.36003    0.05996    1.000
    N383     N        0.11080    0.28052    0.10753    1.000
    Si384    Si       0.11760    0.32279    0.10319    1.000
    Si385    Si       0.18931    0.30985    0.09750    1.000
    N386     N        0.21673    0.33442    0.07777    1.000
    N387     N        0.16571    0.28318    0.07180    1.000
    Si388    Si       0.10609    0.38138    0.05960    1.000
    Si389    Si       0.04314    0.39281    0.08546    1.000
    N390     N        0.08353    0.40496    0.08786    1.000
    Si391    Si       0.04582    0.46111    0.08018    1.000
    N392     N        0.02444    0.42723    0.06567    1.000
    N393     N        0.08491    0.46854    0.06364    1.000
    N394     N        0.02180    0.49530    0.07707    1.000
    Si395    Si       0.22660    0.43262    0.11175    1.000
    N396     N        0.21406    0.42194    0.07010    1.000
    N397     N        0.15612    0.46398    0.05773    1.000
    Si398    Si       0.11928    0.44267    0.07410    1.000
    N399     N        0.14132    0.40382    0.06392    1.000
    N400     N        0.10065    0.34342    0.13739    1.000
    Si401    Si       0.99930    0.35083    0.12752    1.000
    N402     N        0.00336    0.30709    0.13811    1.000
    Si403    Si       0.06610    0.36400    0.15460    1.000
    N404     N        0.03525    0.37400    0.12532    1.000
    Si405    Si       0.14093    0.34334    0.15945    1.000
    N406     N        0.21039    0.28279    0.12523    1.000
    Si407    Si       0.18657    0.27664    0.16067    1.000
    N408     N        0.15770    0.33264    0.11824    1.000
    Si409    Si       0.08398    0.42532    0.12589    1.000
    N410     N        0.04859    0.45175    0.12378    1.000
    Si411    Si       0.02802    0.46118    0.16200    1.000
    N412     N        0.08198    0.40518    0.16430    1.000
    N413     N        0.00633    0.49800    0.15107    1.000
    N414     N        0.15623    0.38412    0.16484    1.000
    N415     N        0.12121    0.44762    0.11686    1.000
    N416     N        0.22458    0.39657    0.13628    1.000
    N417     N        0.19059    0.44944    0.13540    1.000
    Si418    Si       0.14937    0.46738    0.14209    1.000
    Si419    Si       0.18916    0.40984    0.15647    1.000
    N420     N        0.04968    0.33626    0.18464    1.000
    N421     N        0.09335    0.28341    0.21477    1.000
    N422     N        0.03064    0.26454    0.19391    1.000
    N423     N        0.99956    0.31151    0.21899    1.000
    Si424    Si       0.08496    0.32595    0.21384    1.000
    Si425    Si       0.02104    0.30516    0.17855    1.000
    Si426    Si       0.02701    0.34798    0.22153    1.000
    N427     N        0.99241    0.37655    0.22314    1.000
    N428     N        0.11896    0.34897    0.19978    1.000
    N429     N        0.16347    0.30961    0.18158    1.000
    Si430    Si       0.16785    0.32618    0.22252    1.000
    Si431    Si       0.23988    0.33800    0.22390    1.000
    N432     N        0.98722    0.49723    0.21527    1.000
    Si433    Si       0.06618    0.50329    0.21100    1.000
    Si434    Si       0.09593    0.43460    0.19383    1.000
    N435     N        0.06242    0.46583    0.18908    1.000
    N436     N        0.00107    0.43257    0.17827    1.000
    Si437    Si       0.19613    0.45717    0.21846    1.000
    N438     N        0.11193    0.41419    0.22774    1.000
    Si439    Si       0.13960    0.38655    0.20802    1.000
    N440     N        0.13373    0.45397    0.18154    1.000
    Si441    Si       0.14061    0.49650    0.19522    1.000
    N442     N        0.20387    0.41998    0.19595    1.000
    N443     N        0.17240    0.49443    0.22348    1.000
    N444     N        0.23041    0.48185    0.20484    1.000
    N445     N        0.06283    0.34673    0.24482    1.000
    Si446    Si       0.00743    0.27117    0.23786    1.000
    Si447    Si       0.07296    0.36408    0.28361    1.000
    N448     N        0.14466    0.30479    0.25397    1.000
    Si449    Si       0.20624    0.26611    0.23762    1.000
    Si450    Si       0.12800    0.26735    0.23783    1.000
    N451     N        0.20763    0.31086    0.23375    1.000
    N452     N        0.23857    0.37491    0.24552    1.000
    N453     N        0.17351    0.36854    0.22920    1.000
    N454     N        0.04864    0.49734    0.24871    1.000
    N455     N        0.01520    0.44042    0.26212    1.000
    Si456    Si       0.00815    0.48138    0.24982    1.000
    Si457    Si       0.11155    0.42661    0.26849    1.000
    N458     N        0.07248    0.40830    0.28306    1.000
    N459     N        0.10958    0.46966    0.26778    1.000
    Si460    Si       0.07312    0.49125    0.28320    1.000
    Si461    Si       0.98679    0.40850    0.25290    1.000
    N462     N        0.98960    0.50252    0.28252    1.000
    N463     N        0.19498    0.43659    0.25536    1.000
    Si464    Si       0.13585    0.50209    0.28346    1.000
    Si465    Si       0.20345    0.39847    0.23516    1.000
    N466     N        0.04846    0.34435    0.31462    1.000
    Si467    Si       0.06031    0.30661    0.32784    1.000
    N468     N        0.03729    0.27048    0.32012    1.000
    N469     N        0.09140    0.29156    0.30062    1.000
    Si470    Si       0.02446    0.36671    0.34282    1.000
    N471     N        0.22769    0.30523    0.31027    1.000
    N472     N        0.17796    0.36844    0.33061    1.000
    N473     N        0.15607    0.30811    0.32563    1.000
    Si474    Si       0.19658    0.32944    0.32857    1.000
    Si475    Si       0.22131    0.26278    0.31674    1.000
    Si476    Si       0.12841    0.31390    0.29202    1.000
    N477     N        0.11399    0.35455    0.29140    1.000
    Si478    Si       0.13928    0.37867    0.31654    1.000
    Si479    Si       0.04003    0.43256    0.29740    1.000
    N480     N        0.02740    0.41041    0.33369    1.000
    N481     N        0.04503    0.47582    0.31455    1.000
    Si482    Si       0.00444    0.49287    0.32249    1.000
    N483     N        0.17175    0.48348    0.29922    1.000
    N484     N        0.14409    0.41665    0.29396    1.000
    Si485    Si       0.20761    0.50529    0.30578    1.000
    N486     N        0.20721    0.42956    0.32587    1.000
    Si487    Si       0.17909    0.44284    0.29398    1.000
    N488     N        0.08039    0.30947    0.36673    1.000
    Si489    Si       0.08853    0.35271    0.37598    1.000
    N490     N        0.04631    0.36131    0.38315    1.000
    Si491    Si       0.06973    0.27800    0.39864    1.000
    N492     N        0.02498    0.26931    0.40229    1.000
    N493     N        0.11089    0.38314    0.35016    1.000
    N494     N        0.20263    0.31648    0.37121    1.000
    Si495    Si       0.16996    0.28815    0.36218    1.000
    Si496    Si       0.22260    0.34241    0.39870    1.000
    N497     N        0.14427    0.28243    0.39551    1.000
    N498     N        0.22442    0.38152    0.37937    1.000
    N499     N        0.03542    0.46204    0.38134    1.000
    Si500    Si       0.00623    0.43362    0.36563    1.000
    Si501    Si       0.06406    0.47967    0.35358    1.000
    N502     N        0.99322    0.40063    0.39236    1.000
    N503     N        0.10016    0.45606    0.35345    1.000
    Si504    Si       0.11814    0.42080    0.37067    1.000
    Si505    Si       0.19180    0.40315    0.35606    1.000
    N506     N        0.16275    0.42314    0.38021    1.000
    N507     N        0.08717    0.29116    0.43503    1.000
    Si508    Si       0.00390    0.28808    0.43683    1.000
    N509     N        0.99338    0.32932    0.42525    1.000
    Si510    Si       0.01518    0.36834    0.41439    1.000
    N511     N        0.11883    0.34954    0.41020    1.000
    N512     N        0.20839    0.33417    0.43874    1.000
    Si513    Si       0.12645    0.30878    0.42446    1.000
    N514     N        0.14209    0.31216    0.46700    1.000
    N515     N        0.03173    0.38831    0.45056    1.000
    N516     N        0.00705    0.46011    0.44523    1.000
    N517     N        0.07040    0.48970    0.42921    1.000
    Si518    Si       0.03082    0.48348    0.41665    1.000
    Si519    Si       0.09826    0.45644    0.43190    1.000
    N520     N        0.09919    0.41952    0.40907    1.000
    N521     N        0.14027    0.47400    0.42308    1.000
    Si522    Si       0.16774    0.44226    0.41757    1.000
    Si523    Si       0.11915    0.38772    0.43277    1.000
    N524     N        0.15479    0.40880    0.44276    1.000
    Si525    Si       0.23545    0.43671    0.44506    1.000
    N526     N        0.20914    0.45811    0.41853    1.000
    Si527    Si       0.21083    0.49939    0.40806    1.000
    N528     N        0.06451    0.32735    0.49320    1.000
    Si529    Si       0.05964    0.37026    0.47940    1.000
    N530     N        0.09734    0.26901    0.49919    1.000
    N531     N        0.03609    0.37854    0.51527    1.000
    Si532    Si       0.06928    0.28882    0.47420    1.000
    Si533    Si       0.01278    0.27144    0.51258    1.000
    N534     N        0.10229    0.37398    0.46980    1.000
    N535     N        0.02855    0.27909    0.47313    1.000
    N536     N        0.00037    0.31232    0.52175    1.000
    Si537    Si       0.12562    0.34570    0.49232    1.000
    N538     N        0.21077    0.30958    0.50088    1.000
    N539     N        0.16799    0.36424    0.49296    1.000
    Si540    Si       0.13606    0.27134    0.48089    1.000
    Si541    Si       0.18335    0.32890    0.47346    1.000
    Si542    Si       0.20354    0.27145    0.51849    1.000
    N543     N        0.16068    0.26042    0.51616    1.000
    Si544    Si       0.01269    0.42334    0.46773    1.000
    N545     N        0.08971    0.44583    0.47157    1.000
    N546     N        0.01992    0.44120    0.50786    1.000
    Si547    Si       0.10897    0.44713    0.50949    1.000
    Si548    Si       0.23273    0.41858    0.51767    1.000
    N549     N        0.21384    0.41973    0.47876    1.000
    N550     N        0.14771    0.42454    0.51284    1.000
    Si551    Si       0.17356    0.40680    0.48231    1.000
    N552     N        0.11836    0.50763    0.47795    1.000
    N553     N        0.05400    0.33253    0.56643    1.000
    Si554    Si       0.09935    0.32838    0.56805    1.000
    N555     N        0.10583    0.28519    0.56990    1.000
    Si556    Si       0.03651    0.33674    0.52399    1.000
    N557     N        0.11909    0.35196    0.53640    1.000
    N558     N        0.21427    0.27733    0.55972    1.000
    N559     N        0.23791    0.37674    0.52828    1.000
    Si560    Si       0.04373    0.41645    0.53541    1.000
    N561     N        0.02385    0.41477    0.57238    1.000
    N562     N        0.08644    0.41750    0.53278    1.000
    N563     N        0.05454    0.49209    0.56168    1.000
    Si564    Si       0.09591    0.50024    0.56337    1.000
    N565     N        0.98919    0.48284    0.56046    1.000
    N566     N        0.20370    0.44167    0.54276    1.000
    N567     N        0.13877    0.41497    0.57583    1.000
    Si568    Si       0.12232    0.39549    0.54176    1.000
    N569     N        0.12501    0.47712    0.53948    1.000
    Si570    Si       0.15806    0.44882    0.55131    1.000
    N571     N        0.00339    0.35828    0.60813    1.000
    Si572    Si       0.02734    0.32377    0.60012    1.000
    N573     N        0.00790    0.28450    0.59492    1.000
    Si574    Si       0.08068    0.35139    0.63414    1.000
    N575     N        0.05102    0.31973    0.63746    1.000
    N576     N        0.11218    0.34367    0.60607    1.000
    N577     N        0.22398    0.34941    0.59365    1.000
    N578     N        0.17150    0.37224    0.63227    1.000
    Si579    Si       0.21216    0.38046    0.62234    1.000
    Si580    Si       0.14076    0.34532    0.63992    1.000
    N581     N        0.06218    0.38955    0.62705    1.000
    N582     N        0.00096    0.48889    0.62474    1.000
    Si583    Si       0.02358    0.39720    0.61118    1.000
    N584     N        0.06164    0.45519    0.63269    1.000
    N585     N        0.00089    0.42294    0.63659    1.000
    Si586    Si       0.08332    0.49120    0.63710    1.000
    N587     N        0.10901    0.49868    0.60472    1.000
    N588     N        0.17304    0.47570    0.58663    1.000
    Si589    Si       0.15160    0.50147    0.61144    1.000
    N590     N        0.20130    0.41826    0.60535    1.000
    Si591    Si       0.15758    0.41099    0.61495    1.000
    Si592    Si       0.21092    0.45523    0.58571    1.000
    Si593    Si       0.06081    0.29132    0.66682    1.000
    N594     N        0.03375    0.28002    0.69865    1.000
    N595     N        0.09237    0.26481    0.64589    1.000
    N596     N        0.09382    0.29881    0.69604    1.000
    N597     N        0.10907    0.36098    0.66429    1.000
    Si598    Si       0.23698    0.25858    0.64258    1.000
    Si599    Si       0.12430    0.27690    0.67323    1.000
    N600     N        0.21876    0.28978    0.66993    1.000
    N601     N        0.15225    0.30731    0.65621    1.000
    Si602    Si       0.18000    0.29534    0.68696    1.000
    N603     N        0.02770    0.45571    0.68890    1.000
    N604     N        0.10052    0.47717    0.67725    1.000
    N605     N        0.08477    0.41521    0.69117    1.000
    Si606    Si       0.02155    0.45862    0.64568    1.000
    Si607    Si       0.08609    0.42033    0.64446    1.000
    N608     N        0.23779    0.39075    0.65422    1.000
    N609     N        0.13002    0.42681    0.64360    1.000
    Si610    Si       0.20058    0.49776    0.67122    1.000
    N611     N        0.16245    0.48800    0.65221    1.000
    Si612    Si       0.13997    0.45805    0.67284    1.000
    N613     N        0.22039    0.46052    0.66461    1.000
    Si614    Si       0.23849    0.42545    0.68003    1.000
    Si615    Si       0.07426    0.31677    0.73032    1.000
    N616     N        0.03545    0.33734    0.72664    1.000
    N617     N        0.10070    0.35390    0.73319    1.000
    Si618    Si       0.01293    0.37128    0.73811    1.000
    Si619    Si       0.00443    0.30542    0.72041    1.000
    Si620    Si       0.07612    0.37664    0.76152    1.000
    Si621    Si       0.11200    0.38368    0.70114    1.000
    N622     N        0.18060    0.32059    0.72363    1.000
    Si623    Si       0.14817    0.34742    0.73972    1.000
    Si624    Si       0.21383    0.31494    0.75348    1.000
    N625     N        0.15353    0.38539    0.71566    1.000
    N626     N        0.15517    0.25907    0.69670    1.000
    N627     N        0.99159    0.39396    0.70892    1.000
    N628     N        0.07952    0.47353    0.74087    1.000
    Si629    Si       0.07174    0.45548    0.69993    1.000
    Si630    Si       0.17222    0.48566    0.73903    1.000
    N631     N        0.15630    0.45272    0.71390    1.000
    Si632    Si       0.17772    0.41816    0.73183    1.000
    N633     N        0.21087    0.47693    0.75664    1.000
    N634     N        0.21905    0.41828    0.71901    1.000
    N635     N        0.08873    0.35401    0.79662    1.000
    Si636    Si       0.03445    0.26942    0.78115    1.000
    Si637    Si       0.08062    0.31332    0.80805    1.000
    N638     N        0.06922    0.29545    0.76907    1.000
    N639     N        0.99854    0.29048    0.75989    1.000
    Si640    Si       0.15950    0.31336    0.80546    1.000
    N641     N        0.19694    0.29723    0.78780    1.000
    N642     N        0.15759    0.34895    0.78139    1.000
    Si643    Si       0.22156    0.27651    0.81548    1.000
    N644     N        0.23378    0.35198    0.76154    1.000
    Si645    Si       0.24381    0.37864    0.79797    1.000
    N646     N        0.11953    0.29808    0.82270    1.000
    N647     N        0.10776    0.45214    0.81068    1.000
    Si648    Si       0.02102    0.49643    0.80024    1.000
    N649     N        0.03694    0.45684    0.80310    1.000
    Si650    Si       0.01146    0.42639    0.78284    1.000
    Si651    Si       0.10464    0.39225    0.81238    1.000
    N652     N        0.10385    0.40909    0.76881    1.000
    N653     N        0.03805    0.39792    0.76145    1.000
    Si654    Si       0.11026    0.45230    0.76588    1.000
    N655     N        0.23893    0.42110    0.78883    1.000
    N656     N        0.17372    0.41908    0.77475    1.000
    Si657    Si       0.20982    0.45663    0.79528    1.000
    Si658    Si       0.17320    0.38475    0.80217    1.000
    Si659    Si       0.13812    0.48407    0.81265    1.000
    N660     N        0.14014    0.48659    0.76945    1.000
    Si661    Si       0.02385    0.30374    0.84817    1.000
    N662     N        0.05828    0.32962    0.84411    1.000
    Si663    Si       0.05721    0.36919    0.86210    1.000
    N664     N        0.01465    0.37222    0.87338    1.000
    N665     N        0.04742    0.27444    0.82344    1.000
    N666     N        0.99502    0.32977    0.82109    1.000
    N667     N        0.17211    0.31607    0.85030    1.000
    Si668    Si       0.20730    0.33986    0.85462    1.000
    Si669    Si       0.13659    0.29388    0.86329    1.000
    N670     N        0.20805    0.37204    0.82359    1.000
    N671     N        0.23684    0.31181    0.83979    1.000
    Si672    Si       0.07039    0.44510    0.82894    1.000
    N673     N        0.07279    0.47030    0.86645    1.000
    N674     N        0.07293    0.40223    0.83937    1.000
    N675     N        0.14262    0.39303    0.83344    1.000
    Si676    Si       0.18314    0.46593    0.86794    1.000
    Si677    Si       0.14725    0.40124    0.87572    1.000
    N678     N        0.17742    0.47029    0.82555    1.000
    Si679    Si       0.07255    0.28295    0.90541    1.000
    N680     N        0.03232    0.29600    0.89475    1.000
    N681     N        0.07838    0.37272    0.90030    1.000
    Si682    Si       0.99708    0.27218    0.90184    1.000
    N683     N        0.10796    0.30630    0.89634    1.000
    Si684    Si       0.10835    0.34635    0.91267    1.000
    Si685    Si       0.18194    0.35275    0.92060    1.000
    N686     N        0.14569    0.36363    0.90253    1.000
    N687     N        0.21475    0.35047    0.89356    1.000
    N688     N        0.20520    0.26397    0.90130    1.000
    Si689    Si       0.08231    0.41286    0.92004    1.000
    N690     N        0.04168    0.42674    0.91840    1.000
    Si691    Si       0.04696    0.47221    0.90429    1.000
    N692     N        0.08521    0.47116    0.92672    1.000
    Si693    Si       0.00788    0.40190    0.90331    1.000
    N694     N        0.01542    0.50173    0.89740    1.000
    Si695    Si       0.10899    0.46752    0.89049    1.000
    N696     N        0.98867    0.43266    0.88199    1.000
    N697     N        0.11663    0.42527    0.89449    1.000
    Si698    Si       0.22595    0.48727    0.92306    1.000
    N699     N        0.18437    0.42338    0.88306    1.000
    N700     N        0.21921    0.48772    0.88205    1.000
    Si701    Si       0.16274    0.50338    0.92518    1.000
    Si702    Si       0.20882    0.41888    0.92007    1.000
    N703     N        0.14868    0.48248    0.89029    1.000
    Si704    Si       0.08770    0.30553    0.97635    1.000
    N705     N        0.07079    0.27665    0.94894    1.000
    N706     N        0.09915    0.34163    0.95571    1.000
    Si707    Si       0.10929    0.37567    0.98198    1.000
    Si708    Si       0.15685    0.32298    0.98389    1.000
    N709     N        0.12759    0.29028    0.98478    1.000
    N710     N        0.17941    0.31810    0.94673    1.000
    N711     N        0.14950    0.36483    0.99327    1.000
    Si712    Si       0.19969    0.28046    0.94235    1.000
    N713     N        0.99506    0.39459    0.94450    1.000
    Si714    Si       0.01904    0.43032    0.95647    1.000
    N715     N        0.09324    0.40874    0.95994    1.000
    Si716    Si       0.09973    0.48851    0.96376    1.000
    N717     N        0.99554    0.46721    0.95555    1.000
    N718     N        0.19681    0.38553    0.94598    1.000
    Si719    Si       0.17669    0.46389    0.97750    1.000
    N720     N        0.20201    0.45634    0.94260    1.000
    N721     N        0.14378    0.48606    0.95939    1.000
    Si722    Si       0.18543    0.38780    0.98926    1.000
    N723     N        0.06667    0.52680    0.02996    1.000
    Si724    Si       0.02520    0.52371    0.04300    1.000
    N725     N        0.00104    0.51355    0.01026    1.000
    Si726    Si       0.99638    0.59614    0.02910    1.000
    N727     N        0.00897    0.63023    0.00608    1.000
    N728     N        0.13219    0.51924    0.02570    1.000
    Si729    Si       0.14215    0.56077    0.01209    1.000
    N730     N        0.21681    0.61782    0.01903    1.000
    N731     N        0.15127    0.58732    0.04786    1.000
    Si732    Si       0.23342    0.59724    0.05410    1.000
    Si733    Si       0.14140    0.62763    0.03601    1.000
    Si734    Si       0.06890    0.72073    0.04614    1.000
    N735     N        0.10002    0.63992    0.03524    1.000
    N736     N        0.05459    0.68975    0.01932    1.000
    Si737    Si       0.02107    0.66398    0.02888    1.000
    Si738    Si       0.08282    0.66225    0.00255    1.000
    N739     N        0.11262    0.72040    0.05137    1.000
    N740     N        0.17143    0.75066    0.03893    1.000
    Si741    Si       0.12844    0.75746    0.03982    1.000
    Si742    Si       0.20407    0.74650    0.00998    1.000
    Si743    Si       0.19673    0.65818    0.02796    1.000
    N744     N        0.16174    0.64466    0.00244    1.000
    N745     N        0.20845    0.69492    0.00121    1.000
    N746     N        0.08398    0.60339    0.09774    1.000
    Si747    Si       0.00191    0.57875    0.09252    1.000
    N748     N        0.01429    0.56399    0.05260    1.000
    Si749    Si       0.22840    0.53225    0.07556    1.000
    Si750    Si       0.16897    0.56778    0.08492    1.000
    N751     N        0.20966    0.58467    0.08974    1.000
    N752     N        0.18636    0.52830    0.06998    1.000
    Si753    Si       0.07723    0.63868    0.07386    1.000
    N754     N        0.10124    0.66978    0.09579    1.000
    N755     N        0.04901    0.71818    0.08435    1.000
    N756     N        0.03583    0.64303    0.06504    1.000
    Si757    Si       0.99475    0.64987    0.07999    1.000
    Si758    Si       0.13231    0.68826    0.07453    1.000
    N759     N        0.16466    0.65772    0.06238    1.000
    N760     N        0.15627    0.69685    0.11194    1.000
    Si761    Si       0.17571    0.65792    0.10863    1.000
    N762     N        0.23169    0.67082    0.05414    1.000
    N763     N        0.09188    0.57208    0.15430    1.000
    N764     N        0.01680    0.60822    0.12226    1.000
    Si765    Si       0.05760    0.58548    0.12720    1.000
    Si766    Si       0.00771    0.51625    0.11308    1.000
    N767     N        0.03778    0.54791    0.11525    1.000
    N768     N        0.14455    0.50891    0.15330    1.000
    Si769    Si       0.11372    0.60717    0.13045    1.000
    Si770    Si       0.13398    0.55224    0.15504    1.000
    N771     N        0.14432    0.57593    0.11917    1.000
    N772     N        0.08525    0.63947    0.15036    1.000
    Si773    Si       0.00030    0.64007    0.14682    1.000
    N774     N        0.05591    0.73571    0.15510    1.000
    N775     N        0.99848    0.72581    0.13426    1.000
    Si776    Si       0.03406    0.74135    0.11664    1.000
    N777     N        0.02718    0.66965    0.16371    1.000
    Si778    Si       0.02141    0.71157    0.16975    1.000
    Si779    Si       0.11321    0.66905    0.13528    1.000
    N780     N        0.12006    0.69961    0.16793    1.000
    N781     N        0.14722    0.64034    0.13804    1.000
    N782     N        0.21699    0.65062    0.11841    1.000
    Si783    Si       0.22703    0.63537    0.15935    1.000
    N784     N        0.23197    0.72219    0.13064    1.000
    N785     N        0.18698    0.68584    0.17110    1.000
    Si786    Si       0.15789    0.71409    0.15251    1.000
    Si787    Si       0.22739    0.69973    0.16894    1.000
    N788     N        0.04579    0.53560    0.19289    1.000
    Si789    Si       0.00166    0.52625    0.18739    1.000
    Si790    Si       0.06714    0.57254    0.19122    1.000
    N791     N        0.03856    0.60640    0.19033    1.000
    N792     N        0.10698    0.51791    0.21339    1.000
    Si793    Si       0.99663    0.60243    0.20248    1.000
    N794     N        0.09136    0.58394    0.22533    1.000
    N795     N        0.21348    0.55648    0.21802    1.000
    Si796    Si       0.18451    0.58650    0.20901    1.000
    N797     N        0.14933    0.56709    0.19358    1.000
    N798     N        0.19639    0.62076    0.18534    1.000
    Si799    Si       0.20993    0.51518    0.22732    1.000
    Si800    Si       0.12382    0.55577    0.22744    1.000
    Si801    Si       0.05637    0.64365    0.18181    1.000
    N802     N        0.02057    0.71806    0.21204    1.000
    N803     N        0.07467    0.65485    0.21832    1.000
    Si804    Si       0.09456    0.73672    0.17499    1.000
    N805     N        0.09152    0.72305    0.22164    1.000
    Si806    Si       0.10972    0.68309    0.21037    1.000
    Si807    Si       0.16498    0.64981    0.18052    1.000
    N808     N        0.14190    0.65485    0.21590    1.000
    N809     N        0.04470    0.61092    0.26853    1.000
    Si810    Si       0.07965    0.62029    0.24546    1.000
    Si811    Si       0.00305    0.60785    0.28001    1.000
    N812     N        0.11299    0.62936    0.27068    1.000
    N813     N        0.14435    0.54348    0.26455    1.000
    N814     N        0.17265    0.59897    0.24760    1.000
    Si815    Si       0.17064    0.57291    0.28236    1.000
    N816     N        0.22673    0.50736    0.26648    1.000
    Si817    Si       0.00568    0.75385    0.23524    1.000
    N818     N        0.04011    0.68727    0.27638    1.000
    Si819    Si       0.05137    0.71393    0.24500    1.000
    N820     N        0.04059    0.75211    0.26197    1.000
    Si821    Si       0.22545    0.64638    0.28358    1.000
    Si822    Si       0.15170    0.63819    0.25444    1.000
    Si823    Si       0.12015    0.74532    0.24634    1.000
    N824     N        0.14103    0.72014    0.27269    1.000
    N825     N        0.18307    0.65984    0.27820    1.000
    N826     N        0.21027    0.72201    0.26110    1.000
    Si827    Si       0.17739    0.70372    0.28538    1.000
    N828     N        0.08501    0.57938    0.32467    1.000
    N829     N        0.10115    0.51598    0.30627    1.000
    Si830    Si       0.09902    0.54133    0.33904    1.000
    Si831    Si       0.11222    0.61239    0.31092    1.000
    N832     N        0.00149    0.52889    0.34538    1.000
    N833     N        0.21701    0.61007    0.30976    1.000
    N834     N        0.15267    0.59984    0.31169    1.000
    N835     N        0.19493    0.54779    0.31020    1.000
    Si836    Si       0.18401    0.61846    0.33557    1.000
    N837     N        0.10075    0.63513    0.34339    1.000
    N838     N        0.07086    0.74416    0.32195    1.000
    N839     N        0.00216    0.64100    0.31126    1.000
    Si840    Si       0.02421    0.67885    0.31450    1.000
    N841     N        0.99381    0.70508    0.33804    1.000
    N842     N        0.12508    0.69991    0.34569    1.000
    Si843    Si       0.22998    0.70499    0.34002    1.000
    N844     N        0.18838    0.71609    0.32640    1.000
    N845     N        0.03636    0.58897    0.37529    1.000
    N846     N        0.06793    0.52364    0.36411    1.000
    Si847    Si       0.03076    0.54434    0.37485    1.000
    Si848    Si       0.07558    0.60235    0.36195    1.000
    N849     N        0.09980    0.59948    0.39728    1.000
    Si850    Si       0.01586    0.61808    0.40248    1.000
    N851     N        0.19321    0.58762    0.36608    1.000
    N852     N        0.13658    0.54986    0.36009    1.000
    Si853    Si       0.13075    0.56916    0.39949    1.000
    N854     N        0.19242    0.51384    0.37012    1.000
    Si855    Si       0.17848    0.54914    0.35167    1.000
    Si856    Si       0.19559    0.60927    0.40441    1.000
    Si857    Si       0.01679    0.69198    0.37567    1.000
    N858     N        0.00009    0.65263    0.38084    1.000
    N859     N        0.08986    0.73191    0.39303    1.000
    Si860    Si       0.08562    0.71551    0.35161    1.000
    N861     N        0.01988    0.72374    0.40769    1.000
    N862     N        0.05184    0.68687    0.34928    1.000
    N863     N        0.11083    0.66758    0.40726    1.000
    Si864    Si       0.12621    0.66182    0.36506    1.000
    Si865    Si       0.15557    0.72805    0.35286    1.000
    N866     N        0.16951    0.65072    0.36025    1.000
    N867     N        0.23077    0.69244    0.38289    1.000
    Si868    Si       0.18927    0.67918    0.38831    1.000
    N869     N        0.16677    0.71617    0.39351    1.000
    Si870    Si       0.08623    0.52326    0.45406    1.000
    N871     N        0.01207    0.52185    0.40987    1.000
    N872     N        0.10912    0.62187    0.46275    1.000
    Si873    Si       0.08977    0.63124    0.42473    1.000
    N874     N        0.04746    0.63205    0.43123    1.000
    N875     N        0.11698    0.54081    0.42706    1.000
    N876     N        0.18619    0.52553    0.43479    1.000
    N877     N        0.15951    0.59230    0.42319    1.000
    Si878    Si       0.19827    0.56525    0.45242    1.000
    N879     N        0.22547    0.59143    0.42885    1.000
    Si880    Si       0.15096    0.61117    0.46124    1.000
    Si881    Si       0.14587    0.51221    0.44295    1.000
    Si882    Si       0.09935    0.70482    0.42525    1.000
    Si883    Si       0.02656    0.70938    0.44626    1.000
    N884     N        0.06811    0.69983    0.45498    1.000
    N885     N        0.00327    0.67622    0.46225    1.000
    N886     N        0.13353    0.71554    0.45294    1.000
    N887     N        0.19695    0.64789    0.42135    1.000
    Si888    Si       0.20486    0.65908    0.46187    1.000
    Si889    Si       0.15850    0.74472    0.42738    1.000
    N890     N        0.19606    0.70132    0.46307    1.000
    N891     N        0.01058    0.60425    0.48497    1.000
    Si892    Si       0.03451    0.56516    0.50209    1.000
    N893     N        0.06274    0.55282    0.47389    1.000
    N894     N        0.01189    0.53145    0.51859    1.000
    N895     N        0.17101    0.58233    0.48592    1.000
    N896     N        0.22775    0.55561    0.48391    1.000
    Si897    Si       0.13376    0.51492    0.51753    1.000
    Si898    Si       0.19808    0.56133    0.51708    1.000
    Si899    Si       0.16176    0.61898    0.52134    1.000
    N900     N        0.17486    0.52463    0.51797    1.000
    Si901    Si       0.09752    0.63795    0.50122    1.000
    N902     N        0.02188    0.74633    0.47181    1.000
    N903     N        0.05784    0.65495    0.50019    1.000
    Si904    Si       0.07820    0.69564    0.49594    1.000
    N905     N        0.07628    0.73323    0.51712    1.000
    Si906    Si       0.02861    0.64225    0.47149    1.000
    Si907    Si       0.15408    0.69250    0.48180    1.000
    N908     N        0.16696    0.70938    0.52153    1.000
    N909     N        0.11605    0.67758    0.50612    1.000
    N910     N        0.17015    0.64452    0.48417    1.000
    Si911    Si       0.21794    0.73795    0.46609    1.000
    N912     N        0.22049    0.74303    0.50903    1.000
    Si913    Si       0.09371    0.57767    0.54823    1.000
    N914     N        0.05118    0.58503    0.53864    1.000
    Si915    Si       0.01927    0.58855    0.56935    1.000
    Si916    Si       0.01839    0.51478    0.55894    1.000
    N917     N        0.10720    0.53744    0.54275    1.000
    N918     N        0.19431    0.59962    0.54186    1.000
    Si919    Si       0.22620    0.58486    0.56907    1.000
    N920     N        0.22603    0.54645    0.55387    1.000
    N921     N        0.11728    0.60819    0.52624    1.000
    Si922    Si       0.09839    0.74855    0.55319    1.000
    N923     N        0.98780    0.68227    0.58094    1.000
    N924     N        0.11491    0.71176    0.56983    1.000
    N925     N        0.22671    0.67429    0.53053    1.000
    Si926    Si       0.13667    0.68759    0.54319    1.000
    Si927    Si       0.20705    0.71191    0.53412    1.000
    Si928    Si       0.21195    0.64343    0.55725    1.000
    N929     N        0.16100    0.65235    0.55381    1.000
    N930     N        0.20498    0.72037    0.57731    1.000
    Si931    Si       0.01779    0.52870    0.62688    1.000
    Si932    Si       0.07348    0.62306    0.60888    1.000
    N933     N        0.09525    0.58968    0.59026    1.000
    N934     N        0.03055    0.62207    0.59848    1.000
    N935     N        0.01744    0.54807    0.58606    1.000
    N936     N        0.15844    0.54518    0.61156    1.000
    N937     N        0.14934    0.61185    0.62178    1.000
    Si938    Si       0.12541    0.57319    0.61851    1.000
    N939     N        0.21800    0.58691    0.61200    1.000
    Si940    Si       0.19514    0.55672    0.63140    1.000
    Si941    Si       0.23645    0.62613    0.61915    1.000
    N942     N        0.06532    0.76116    0.58025    1.000
    N943     N        0.10099    0.65522    0.59786    1.000
    Si944    Si       0.99835    0.65103    0.60885    1.000
    N945     N        0.09500    0.72383    0.63572    1.000
    Si946    Si       0.07735    0.76156    0.62252    1.000
    Si947    Si       0.11150    0.69582    0.60969    1.000
    N948     N        0.20882    0.65372    0.59875    1.000
    Si949    Si       0.19433    0.69318    0.61043    1.000
    Si950    Si       0.14557    0.64552    0.59519    1.000
    N951     N        0.15299    0.68467    0.61650    1.000
    Si952    Si       0.06964    0.54985    0.67393    1.000
    N953     N        0.03710    0.57709    0.68647    1.000
    Si954    Si       0.10485    0.61206    0.67558    1.000
    N955     N        0.10362    0.57271    0.65637    1.000
    Si956    Si       0.99314    0.57194    0.68638    1.000
    N957     N        0.05481    0.52122    0.64599    1.000
    Si958    Si       0.17390    0.61659    0.65823    1.000
    N959     N        0.18700    0.57552    0.67081    1.000
    Si960    Si       0.22963    0.59377    0.68634    1.000
    N961     N        0.21367    0.63209    0.66007    1.000
    N962     N        0.14343    0.63409    0.68336    1.000
    N963     N        0.22132    0.52546    0.64367    1.000
    N964     N        0.07527    0.63244    0.65255    1.000
    Si965    Si       0.04952    0.66231    0.67255    1.000
    N966     N        0.06809    0.69383    0.69205    1.000
    Si967    Si       0.09547    0.72566    0.67780    1.000
    Si968    Si       0.99200    0.69602    0.67458    1.000
    N969     N        0.01442    0.67155    0.64697    1.000
    Si970    Si       0.22759    0.66239    0.69110    1.000
    N971     N        0.21343    0.70239    0.64772    1.000
    N972     N        0.13407    0.70379    0.68948    1.000
    N973     N        0.18603    0.75859    0.69105    1.000
    N974     N        0.09100    0.60382    0.71655    1.000
    N975     N        0.08438    0.53607    0.71202    1.000
    Si976    Si       0.04687    0.60548    0.71569    1.000
    Si977    Si       0.07528    0.51507    0.74899    1.000
    N978     N        0.03348    0.58870    0.75324    1.000
    Si979    Si       0.00866    0.55321    0.75596    1.000
    Si980    Si       0.10807    0.56763    0.73349    1.000
    N981     N        0.21911    0.56678    0.72445    1.000
    N982     N        0.15110    0.56734    0.73760    1.000
    Si983    Si       0.22687    0.60171    0.74966    1.000
    Si984    Si       0.18017    0.55602    0.70784    1.000
    N985     N        0.18823    0.51289    0.71034    1.000
    Si986    Si       0.22663    0.51848    0.73488    1.000
    N987     N        0.23792    0.62622    0.71602    1.000
    N988     N        0.00813    0.71058    0.71492    1.000
    Si989    Si       0.04770    0.70083    0.73141    1.000
    N990     N        0.06993    0.73595    0.74752    1.000
    N991     N        0.02838    0.64140    0.70549    1.000
    N992     N        0.15941    0.73035    0.74938    1.000
    Si993    Si       0.19671    0.70565    0.74877    1.000
    Si994    Si       0.14976    0.74358    0.70804    1.000
    N995     N        0.23066    0.73257    0.74886    1.000
    N996     N        0.19544    0.68012    0.71346    1.000
    Si997    Si       0.14895    0.66947    0.70835    1.000
    N998     N        0.12845    0.66459    0.74687    1.000
    Si999    Si       0.00475    0.60875    0.78031    1.000
    N1000    N        0.09458    0.54840    0.77088    1.000
    N1001    N        0.02948    0.62673    0.81254    1.000
    Si1002   Si       0.10948    0.55471    0.81115    1.000
    N1003    N        0.03386    0.51929    0.76515    1.000
    N1004    N        0.20030    0.54612    0.78716    1.000
    Si1005   Si       0.17053    0.57569    0.77745    1.000
    N1006    N        0.19230    0.61248    0.77376    1.000
    N1007    N        0.14448    0.57974    0.81210    1.000
    N1008    N        0.09999    0.63266    0.80885    1.000
    N1009    N        0.99738    0.69112    0.80257    1.000
    Si1010   Si       0.00607    0.73504    0.80749    1.000
    Si1011   Si       0.03642    0.66852    0.80721    1.000
    Si1012   Si       0.09927    0.66357    0.77942    1.000
    N1013    N        0.05553    0.67237    0.76751    1.000
    N1014    N        0.99482    0.75034    0.76763    1.000
    N1015    N        0.11196    0.69793    0.80628    1.000
    Si1016   Si       0.19541    0.64392    0.80269    1.000
    Si1017   Si       0.14061    0.73096    0.78909    1.000
    N1018    N        0.20596    0.67908    0.78001    1.000
    N1019    N        0.07954    0.57507    0.83916    1.000
    N1020    N        0.03551    0.51648    0.83471    1.000
    Si1021   Si       0.06616    0.61566    0.83289    1.000
    Si1022   Si       0.01167    0.53392    0.86964    1.000
    Si1023   Si       0.07577    0.51241    0.85337    1.000
    N1024    N        0.11501    0.51664    0.83101    1.000
    Si1025   Si       0.13680    0.61740    0.83343    1.000
    N1026    N        0.14006    0.61175    0.87699    1.000
    N1027    N        0.05541    0.68508    0.84250    1.000
    N1028    N        0.09546    0.74046    0.86039    1.000
    Si1029   Si       0.07706    0.71959    0.82769    1.000
    N1030    N        0.04692    0.74933    0.81692    1.000
    N1031    N        0.16035    0.65265    0.82590    1.000
    Si1032   Si       0.14194    0.68940    0.83812    1.000
    N1033    N        0.23209    0.64637    0.82509    1.000
    Si1034   Si       0.18144    0.75416    0.85555    1.000
    N1035    N        0.16315    0.72647    0.82792    1.000
    Si1036   Si       0.23328    0.65179    0.86842    1.000
    Si1037   Si       0.00534    0.60968    0.89308    1.000
    N1038    N        0.08887    0.58890    0.92064    1.000
    Si1039   Si       0.10162    0.54567    0.92546    1.000
    N1040    N        0.08184    0.53448    0.89008    1.000
    Si1041   Si       0.10654    0.62325    0.90137    1.000
    N1042    N        0.02519    0.57301    0.88303    1.000
    N1043    N        0.07335    0.62869    0.87395    1.000
    Si1044   Si       0.06868    0.57671    0.88094    1.000
    N1045    N        0.14465    0.54642    0.92522    1.000
    Si1046   Si       0.16690    0.62373    0.91123    1.000
    N1047    N        0.06996    0.69998    0.90586    1.000
    Si1048   Si       0.04484    0.73076    0.92484    1.000
    N1049    N        0.01363    0.65324    0.89369    1.000
    Si1050   Si       0.10976    0.71822    0.89627    1.000
    Si1051   Si       0.05320    0.66667    0.88121    1.000
    Si1052   Si       0.20674    0.74847    0.92668    1.000
    N1053    N        0.13690    0.68997    0.88105    1.000
    N1054    N        0.12247    0.74049    0.93109    1.000
    Si1055   Si       0.17697    0.68894    0.89837    1.000
    N1056    N        0.19500    0.65082    0.88897    1.000
    N1057    N        0.18460    0.73225    0.89315    1.000
    Si1058   Si       0.02726    0.61165    0.97241    1.000
    N1059    N        0.08638    0.52969    0.96241    1.000
    Si1060   Si       0.09885    0.60901    0.96081    1.000
    N1061    N        0.03555    0.57152    0.98485    1.000
    Si1062   Si       0.99676    0.54940    0.98375    1.000
    N1063    N        0.10899    0.58118    0.99214    1.000
    Si1064   Si       0.07402    0.55474    0.99593    1.000
    N1065    N        0.00091    0.60945    0.93909    1.000
    Si1066   Si       0.21783    0.60904    0.97491    1.000
    Si1067   Si       0.17802    0.55961    0.94712    1.000
    N1068    N        0.17837    0.55352    0.99037    1.000
    N1069    N        0.20231    0.52200    0.93934    1.000
    Si1070   Si       0.21701    0.53158    0.98389    1.000
    N1071    N        0.18682    0.59999    0.93989    1.000
    N1072    N        0.06619    0.63420    0.97438    1.000
    Si1073   Si       0.10196    0.72935    0.96922    1.000
    N1074    N        0.05988    0.74268    0.96574    1.000
    N1075    N        0.00466    0.71574    0.93474    1.000
    N1076    N        0.10975    0.68728    0.97712    1.000
    Si1077   Si       0.21374    0.68477    0.95878    1.000
    N1078    N        0.23343    0.71521    0.93551    1.000
    Si1079   Si       0.14346    0.66323    0.96606    1.000
    N1080    N        0.17502    0.68018    0.94163    1.000
    N1081    N        0.18852    0.74991    0.96673    1.000
    N1082    N        0.12424    0.75755    0.99437    1.000
    N1083    N        0.12855    0.63399    0.93796    1.000
    N1084    N        0.01285    0.86899    0.02897    1.000
    Si1085   Si       0.03093    0.82843    0.02401    1.000
    N1086    N        0.99957    0.80194    0.04243    1.000
    N1087    N        0.05833    0.76162    0.03186    1.000
    N1088    N        0.14075    0.82751    0.01277    1.000
    N1089    N        0.21492    0.79093    0.01742    1.000
    Si1090   Si       0.03966    0.89743    0.01289    1.000
    Si1091   Si       0.03470    0.96819    0.02623    1.000
    N1092    N        0.06773    0.90311    0.04408    1.000
    Si1093   Si       0.09725    0.93661    0.04592    1.000
    N1094    N        0.01693    0.93317    0.00712    1.000
    N1095    N        0.07802    0.96635    0.02342    1.000
    N1096    N        0.13827    0.92461    0.03475    1.000
    Si1097   Si       0.21643    0.96988    0.01584    1.000
    N1098    N        0.19883    0.95688    0.05296    1.000
    Si1099   Si       0.07560    0.86893    0.06916    1.000
    Si1100   Si       0.06563    0.78983    0.06524    1.000
    Si1101   Si       0.99940    0.80054    0.08595    1.000
    N1102    N        0.03621    0.78175    0.09776    1.000
    N1103    N        0.05792    0.87738    0.10782    1.000
    N1104    N        0.99408    0.84240    0.09527    1.000
    N1105    N        0.05735    0.83119    0.05760    1.000
    N1106    N        0.11145    0.79023    0.06395    1.000
    N1107    N        0.11847    0.86595    0.06773    1.000
    N1108    N        0.17284    0.82138    0.07104    1.000
    Si1109   Si       0.19726    0.85186    0.09449    1.000
    N1110    N        0.21815    0.77338    0.08884    1.000
    Si1111   Si       0.19269    0.78714    0.05383    1.000
    Si1112   Si       0.13322    0.82751    0.05467    1.000
    N1113    N        0.99439    0.90992    0.08374    1.000
    Si1114   Si       0.05620    0.96556    0.09678    1.000
    N1115    N        0.02448    0.96775    0.06807    1.000
    N1116    N        0.09501    0.94565    0.08865    1.000
    N1117    N        0.06504    0.00349    0.11210    1.000
    Si1118   Si       0.17390    0.98727    0.07371    1.000
    N1119    N        0.16653    0.96642    0.11050    1.000
    N1120    N        0.13686    0.00299    0.06008    1.000
    Si1121   Si       0.21849    0.92054    0.06771    1.000
    N1122    N        0.19106    0.88900    0.07321    1.000
    Si1123   Si       0.14630    0.89806    0.07294    1.000
    Si1124   Si       0.07026    0.86538    0.14870    1.000
    N1125    N        0.11030    0.84700    0.14749    1.000
    N1126    N        0.18171    0.85094    0.13501    1.000
    Si1127   Si       0.14570    0.87434    0.14586    1.000
    N1128    N        0.22577    0.78839    0.16028    1.000
    Si1129   Si       0.20277    0.82557    0.16578    1.000
    Si1130   Si       0.20961    0.76042    0.12975    1.000
    N1131    N        0.17051    0.75440    0.15234    1.000
    N1132    N        0.00236    0.88770    0.14917    1.000
    Si1133   Si       0.07177    0.94734    0.15752    1.000
    N1134    N        0.04137    0.94219    0.12890    1.000
    Si1135   Si       0.02390    0.90623    0.11541    1.000
    N1136    N        0.10831    0.96993    0.14958    1.000
    N1137    N        0.23055    0.97941    0.15141    1.000
    Si1138   Si       0.18878    0.97571    0.14685    1.000
    N1139    N        0.14229    0.90532    0.11604    1.000
    Si1140   Si       0.12784    0.94557    0.11686    1.000
    Si1141   Si       0.02848    0.82256    0.20774    1.000
    N1142    N        0.00309    0.78710    0.20725    1.000
    N1143    N        0.99833    0.85379    0.21121    1.000
    Si1144   Si       0.09688    0.81647    0.17724    1.000
    N1145    N        0.05594    0.83188    0.17504    1.000
    N1146    N        0.10991    0.83159    0.21595    1.000
    N1147    N        0.11096    0.77759    0.17680    1.000
    N1148    N        0.16871    0.81561    0.19180    1.000
    Si1149   Si       0.15061    0.84738    0.21431    1.000
    Si1150   Si       0.15383    0.77551    0.18514    1.000
    N1151    N        0.15523    0.75797    0.22332    1.000
    Si1152   Si       0.08387    0.99430    0.21406    1.000
    N1153    N        0.05945    0.96118    0.19751    1.000
    Si1154   Si       0.05543    0.91652    0.20820    1.000
    N1155    N        0.01291    0.92126    0.21029    1.000
    Si1156   Si       0.01586    0.96478    0.20374    1.000
    Si1157   Si       0.99040    0.89194    0.19057    1.000
    N1158    N        0.99001    0.97824    0.17346    1.000
    N1159    N        0.07279    0.90477    0.17066    1.000
    Si1160   Si       0.16854    0.91814    0.20932    1.000
    Si1161   Si       0.13899    0.98042    0.17788    1.000
    N1162    N        0.17099    0.95026    0.17978    1.000
    N1163    N        0.14915    0.88340    0.18961    1.000
    N1164    N        0.20886    0.90121    0.21980    1.000
    N1165    N        0.12426    0.98302    0.21626    1.000
    Si1166   Si       0.09274    0.82083    0.25268    1.000
    N1167    N        0.04890    0.82377    0.24600    1.000
    N1168    N        0.10010    0.77981    0.26741    1.000
    Si1169   Si       0.02418    0.82914    0.28194    1.000
    N1170    N        0.09654    0.85007    0.28550    1.000
    Si1171   Si       0.06842    0.88152    0.27948    1.000
    N1172    N        0.02668    0.87067    0.28834    1.000
    N1173    N        0.23330    0.77679    0.23456    1.000
    N1174    N        0.23212    0.84522    0.25700    1.000
    N1175    N        0.16070    0.85851    0.25455    1.000
    N1176    N        0.19150    0.78694    0.28101    1.000
    Si1177   Si       0.20151    0.87596    0.25485    1.000
    Si1178   Si       0.23058    0.80389    0.26826    1.000
    Si1179   Si       0.18986    0.75899    0.24903    1.000
    N1180    N        0.01283    0.98883    0.24160    1.000
    N1181    N        0.07164    0.89530    0.23912    1.000
    N1182    N        0.00687    0.93279    0.28573    1.000
    Si1183   Si       0.98814    0.96605    0.26869    1.000
    Si1184   Si       0.15056    0.98019    0.25019    1.000
    N1185    N        0.13130    0.99927    0.28482    1.000
    N1186    N        0.15972    0.93696    0.24931    1.000
    N1187    N        0.18638    0.00505    0.24806    1.000
    Si1188   Si       0.16865    0.92288    0.28879    1.000
    N1189    N        0.04331    0.80797    0.31335    1.000
    Si1190   Si       0.06369    0.77356    0.29226    1.000
    N1191    N        0.14931    0.82461    0.32337    1.000
    Si1192   Si       0.17728    0.79040    0.32162    1.000
    N1193    N        0.21462    0.79268    0.34199    1.000
    Si1194   Si       0.14046    0.85667    0.29357    1.000
    Si1195   Si       0.04001    0.94051    0.31363    1.000
    N1196    N        0.04435    0.98266    0.32008    1.000
    N1197    N        0.07473    0.91743    0.30198    1.000
    Si1198   Si       0.10875    0.91929    0.32866    1.000
    N1199    N        0.10953    0.96113    0.33756    1.000
    N1200    N        0.22169    0.00244    0.32126    1.000
    Si1201   Si       0.14266    0.98611    0.32625    1.000
    N1202    N        0.13782    0.89756    0.30668    1.000
    N1203    N        0.17282    0.95602    0.31839    1.000
    Si1204   Si       0.20975    0.96395    0.33905    1.000
    Si1205   Si       0.23970    0.89404    0.31966    1.000
    N1206    N        0.20690    0.90220    0.29033    1.000
    N1207    N        0.08840    0.79893    0.36493    1.000
    N1208    N        0.04384    0.85503    0.37464    1.000
    N1209    N        0.02093    0.79639    0.38055    1.000
    Si1210   Si       0.04997    0.81547    0.35609    1.000
    Si1211   Si       0.09313    0.77326    0.39845    1.000
    Si1212   Si       0.01641    0.83338    0.40392    1.000
    N1213    N        0.13482    0.83608    0.39277    1.000
    Si1214   Si       0.21162    0.87404    0.38891    1.000
    Si1215   Si       0.13080    0.80996    0.35996    1.000
    Si1216   Si       0.13202    0.87804    0.39096    1.000
    N1217    N        0.23002    0.86353    0.34828    1.000
    Si1218   Si       0.23386    0.82377    0.36566    1.000
    N1219    N        0.21441    0.83210    0.40305    1.000
    N1220    N        0.14896    0.77090    0.34965    1.000
    N1221    N        0.10037    0.89650    0.36573    1.000
    N1222    N        0.07663    0.97846    0.39150    1.000
    Si1223   Si       0.05729    0.89579    0.37517    1.000
    Si1224   Si       0.07885    0.98960    0.34953    1.000
    N1225    N        0.99213    0.90870    0.40237    1.000
    N1226    N        0.03071    0.92082    0.35054    1.000
    Si1227   Si       0.98759    0.92043    0.36281    1.000
    N1228    N        0.17287    0.89259    0.38862    1.000
    N1229    N        0.13955    0.95017    0.39966    1.000
    Si1230   Si       0.16598    0.98210    0.39532    1.000
    N1231    N        0.20245    0.96143    0.38292    1.000
    Si1232   Si       0.23986    0.93736    0.38528    1.000
    N1233    N        0.15606    0.00797    0.36186    1.000
    N1234    N        0.03554    0.84256    0.44361    1.000
    N1235    N        0.06196    0.78264    0.42733    1.000
    N1236    N        0.10374    0.83722    0.45776    1.000
    Si1237   Si       0.06788    0.81453    0.45757    1.000
    Si1238   Si       0.02269    0.76618    0.41431    1.000
    N1239    N        0.19465    0.76440    0.43956    1.000
    Si1240   Si       0.20595    0.80736    0.43844    1.000
    Si1241   Si       0.13632    0.81990    0.43306    1.000
    N1242    N        0.13065    0.77754    0.42348    1.000
    N1243    N        0.17139    0.82666    0.45531    1.000
    N1244    N        0.10271    0.95960    0.44991    1.000
    Si1245   Si       0.00642    0.99501    0.45995    1.000
    Si1246   Si       0.06928    0.99282    0.43246    1.000
    Si1247   Si       0.02175    0.92886    0.43088    1.000
    N1248    N        0.04151    0.96311    0.45551    1.000
    N1249    N        0.06008    0.91647    0.41386    1.000
    Si1250   Si       0.09818    0.94053    0.40969    1.000
    N1251    N        0.01171    0.90692    0.46768    1.000
    N1252    N        0.16619    0.00122    0.43495    1.000
    Si1253   Si       0.13333    0.99069    0.45985    1.000
    N1254    N        0.12439    0.89628    0.43019    1.000
    Si1255   Si       0.16266    0.92076    0.42002    1.000
    N1256    N        0.17916    0.93096    0.45669    1.000
    N1257    N        0.06243    0.79876    0.49849    1.000
    N1258    N        0.04434    0.86519    0.51100    1.000
    Si1259   Si       0.01824    0.86444    0.47746    1.000
    Si1260   Si       0.04317    0.76079    0.50734    1.000
    Si1261   Si       0.11143    0.88114    0.46748    1.000
    Si1262   Si       0.17437    0.85073    0.48912    1.000
    N1263    N        0.21135    0.87467    0.48648    1.000
    N1264    N        0.14352    0.87929    0.49703    1.000
    Si1265   Si       0.07497    0.94911    0.48186    1.000
    N1266    N        0.08109    0.98715    0.50557    1.000
    N1267    N        0.08659    0.90781    0.49131    1.000
    N1268    N        0.00342    0.98549    0.50328    1.000
    Si1269   Si       0.00311    0.93987    0.49737    1.000
    Si1270   Si       0.04325    0.98435    0.52518    1.000
    N1271    N        0.04100    0.94044    0.52274    1.000
    N1272    N        0.19958    0.93640    0.52193    1.000
    Si1273   Si       0.18701    0.97666    0.51441    1.000
    Si1274   Si       0.21012    0.91973    0.48437    1.000
    N1275    N        0.21816    0.99234    0.48579    1.000
    N1276    N        0.14766    0.98611    0.50333    1.000
    N1277    N        0.04414    0.82408    0.56336    1.000
    Si1278   Si       0.02934    0.78486    0.57305    1.000
    N1279    N        0.10780    0.84525    0.53599    1.000
    N1280    N        0.01321    0.76429    0.53702    1.000
    Si1281   Si       0.06716    0.83154    0.52843    1.000
    N1282    N        0.17570    0.83031    0.52827    1.000
    N1283    N        0.12847    0.77867    0.56139    1.000
    N1284    N        0.22156    0.78652    0.56015    1.000
    Si1285   Si       0.13920    0.81862    0.54915    1.000
    Si1286   Si       0.21483    0.82812    0.54974    1.000
    Si1287   Si       0.12732    0.88407    0.53688    1.000
    N1288    N        0.10096    0.91178    0.55571    1.000
    N1289    N        0.04146    0.89639    0.57219    1.000
    Si1290   Si       0.06193    0.90328    0.53134    1.000
    N1291    N        0.11223    0.97693    0.56513    1.000
    Si1292   Si       0.11517    0.99975    0.52955    1.000
    N1293    N        0.04633    0.00663    0.55937    1.000
    N1294    N        0.23287    0.91412    0.57783    1.000
    Si1295   Si       0.13297    0.93945    0.57839    1.000
    N1296    N        0.16023    0.89521    0.56619    1.000
    Si1297   Si       0.19522    0.92435    0.56379    1.000
    N1298    N        0.20233    0.00188    0.54533    1.000
    N1299    N        0.00624    0.85634    0.61656    1.000
    N1300    N        0.08092    0.86668    0.60881    1.000
    Si1301   Si       0.04109    0.85797    0.59157    1.000
    N1302    N        0.00018    0.78228    0.60493    1.000
    N1303    N        0.10954    0.79008    0.62835    1.000
    Si1304   Si       0.11275    0.84321    0.62762    1.000
    Si1305   Si       0.14205    0.78559    0.60052    1.000
    N1306    N        0.18155    0.77430    0.61777    1.000
    Si1307   Si       0.16840    0.86616    0.59791    1.000
    N1308    N        0.14256    0.83128    0.59120    1.000
    N1309    N        0.14475    0.87412    0.63614    1.000
    Si1310   Si       0.21369    0.76141    0.59206    1.000
    N1311    N        0.20722    0.85242    0.58517    1.000
    Si1312   Si       0.02019    0.92820    0.59265    1.000
    Si1313   Si       0.07910    0.91025    0.59420    1.000
    N1314    N        0.05624    0.95052    0.59839    1.000
    N1315    N        0.00840    0.99217    0.62189    1.000
    N1316    N        0.00975    0.92312    0.63664    1.000
    Si1317   Si       0.07518    0.98773    0.58836    1.000
    N1318    N        0.09040    0.00973    0.62182    1.000
    N1319    N        0.17312    0.95109    0.58918    1.000
    N1320    N        0.11535    0.92677    0.61592    1.000
    N1321    N        0.21633    0.99603    0.61749    1.000
    Si1322   Si       0.18598    0.96603    0.62735    1.000
    N1323    N        0.09805    0.83803    0.67292    1.000
    N1324    N        0.99553    0.87185    0.69099    1.000
    Si1325   Si       0.00272    0.76737    0.64583    1.000
    N1326    N        0.04606    0.76549    0.64986    1.000
    N1327    N        0.11410    0.76333    0.69473    1.000
    Si1328   Si       0.11889    0.79917    0.67079    1.000
    N1329    N        0.20048    0.87090    0.68769    1.000
    N1330    N        0.22865    0.81299    0.65610    1.000
    Si1331   Si       0.19154    0.78846    0.65941    1.000
    N1332    N        0.15952    0.81464    0.66756    1.000
    Si1333   Si       0.16191    0.85725    0.67367    1.000
    N1334    N        0.13725    0.88258    0.70024    1.000
    Si1335   Si       0.99231    0.88473    0.64702    1.000
    Si1336   Si       0.01301    0.96262    0.65348    1.000
    N1337    N        0.05098    0.96616    0.67363    1.000
    Si1338   Si       0.07365    0.00120    0.66330    1.000
    Si1339   Si       0.07975    0.93939    0.69720    1.000
    N1340    N        0.18020    0.93156    0.65410    1.000
    Si1341   Si       0.14111    0.98323    0.68609    1.000
    Si1342   Si       0.20299    0.91460    0.68803    1.000
    N1343    N        0.11954    0.94493    0.68239    1.000
    Si1344   Si       0.13693    0.91787    0.65220    1.000
    N1345    N        0.15466    0.99035    0.64594    1.000
    N1346    N        0.09752    0.85023    0.74674    1.000
    N1347    N        0.99526    0.80960    0.72789    1.000
    N1348    N        0.03079    0.86510    0.75572    1.000
    Si1349   Si       0.09723    0.86620    0.70598    1.000
    N1350    N        0.21951    0.79770    0.73033    1.000
    N1351    N        0.16866    0.84696    0.74802    1.000
    Si1352   Si       0.22423    0.75794    0.71400    1.000
    Si1353   Si       0.20303    0.82300    0.75959    1.000
    Si1354   Si       0.02934    0.88481    0.71645    1.000
    Si1355   Si       0.05908    0.99810    0.74519    1.000
    N1356    N        0.08001    0.95888    0.73858    1.000
    N1357    N        0.01850    0.98558    0.74135    1.000
    N1358    N        0.00630    0.92093    0.72986    1.000
    N1359    N        0.06905    0.89789    0.70285    1.000
    Si1360   Si       0.18576    0.96266    0.74380    1.000
    N1361    N        0.18068    0.92491    0.72449    1.000
    Si1362   Si       0.16324    0.88858    0.73577    1.000
    N1363    N        0.16704    0.99630    0.72039    1.000
    N1364    N        0.22801    0.96766    0.74839    1.000
    N1365    N        0.05058    0.80118    0.76811    1.000
    Si1366   Si       0.06299    0.84098    0.77164    1.000
    N1367    N        0.07131    0.86026    0.80867    1.000
    Si1368   Si       0.00634    0.79197    0.76343    1.000
    Si1369   Si       0.07050    0.76472    0.77883    1.000
    Si1370   Si       0.99459    0.85623    0.77733    1.000
    N1371    N        0.99036    0.81705    0.79641    1.000
    N1372    N        0.10930    0.76144    0.79921    1.000
    N1373    N        0.13158    0.83055    0.80812    1.000
    N1374    N        0.19924    0.80317    0.79807    1.000
    Si1375   Si       0.13227    0.85313    0.77065    1.000
    Si1376   Si       0.23496    0.79490    0.81958    1.000
    N1377    N        0.99521    0.88356    0.81227    1.000
    Si1378   Si       0.04069    0.89302    0.81458    1.000
    N1379    N        0.04387    0.93057    0.79179    1.000
    N1380    N        0.07142    0.99550    0.78764    1.000
    Si1381   Si       0.08031    0.95292    0.78341    1.000
    N1382    N        0.10911    0.94512    0.81341    1.000
    Si1383   Si       0.01409    0.94698    0.76366    1.000
    Si1384   Si       0.14832    0.92772    0.80385    1.000
    Si1385   Si       0.17499    0.00063    0.80257    1.000
    N1386    N        0.21819    0.99871    0.81558    1.000
    N1387    N        0.14161    0.89510    0.77565    1.000
    N1388    N        0.16947    0.96155    0.78415    1.000
    N1389    N        0.08363    0.80188    0.84702    1.000
    Si1390   Si       0.09910    0.84053    0.83561    1.000
    N1391    N        0.01903    0.80863    0.86100    1.000
    Si1392   Si       0.04942    0.77595    0.85479    1.000
    N1393    N        0.11737    0.85502    0.87060    1.000
    Si1394   Si       0.11549    0.77494    0.84016    1.000
    N1395    N        0.15460    0.78572    0.85292    1.000
    N1396    N        0.18607    0.84779    0.84437    1.000
    Si1397   Si       0.22745    0.86371    0.84053    1.000
    Si1398   Si       0.15797    0.87346    0.86764    1.000
    Si1399   Si       0.16710    0.81419    0.82338    1.000
    N1400    N        0.22158    0.76392    0.84716    1.000
    Si1401   Si       0.99222    0.88889    0.85561    1.000
    N1402    N        0.03506    0.89397    0.85861    1.000
    N1403    N        0.02200    0.99733    0.84127    1.000
    Si1404   Si       0.10664    0.96721    0.85285    1.000
    N1405    N        0.06951    0.94990    0.86989    1.000
    N1406    N        0.08368    0.00865    0.85637    1.000
    Si1407   Si       0.22697    0.99173    0.85889    1.000
    N1408    N        0.16040    0.90998    0.84588    1.000
    N1409    N        0.21791    0.94809    0.86195    1.000
    Si1410   Si       0.17753    0.93783    0.87782    1.000
    N1411    N        0.14508    0.96644    0.87170    1.000
    Si1412   Si       0.02980    0.81120    0.90327    1.000
    N1413    N        0.06033    0.83678    0.91916    1.000
    N1414    N        0.04411    0.76852    0.90109    1.000
    Si1415   Si       0.09892    0.85590    0.90894    1.000
    N1416    N        0.99507    0.81697    0.92798    1.000
    N1417    N        0.21711    0.78957    0.91908    1.000
    N1418    N        0.17196    0.86370    0.90771    1.000
    Si1419   Si       0.19174    0.82663    0.92617    1.000
    N1420    N        0.04360    0.99881    0.91492    1.000
    N1421    N        0.08422    0.89876    0.91541    1.000
    N1422    N        0.02342    0.93053    0.91566    1.000
    Si1423   Si       0.05530    0.91581    0.89043    1.000
    Si1424   Si       0.04788    0.98753    0.87366    1.000
    N1425    N        0.18377    0.92754    0.91942    1.000
    Si1426   Si       0.06939    0.84376    0.96162    1.000
    N1427    N        0.99719    0.76733    0.98502    1.000
    N1428    N        0.04841    0.81449    0.98851    1.000
    N1429    N        0.11118    0.84877    0.95153    1.000
    Si1430   Si       0.04165    0.77185    0.99233    1.000
    N1431    N        0.16051    0.80624    0.94816    1.000
    Si1432   Si       0.14656    0.83965    0.97320    1.000
    N1433    N        0.17785    0.86874    0.97081    1.000
    Si1434   Si       0.21981    0.87114    0.97323    1.000
    Si1435   Si       0.14771    0.76571    0.95884    1.000
    N1436    N        0.23060    0.84674    0.93806    1.000
    N1437    N        0.06154    0.88437    0.97791    1.000
    N1438    N        0.99750    0.97654    0.96096    1.000
    N1439    N        0.07109    0.95415    0.95842    1.000
    Si1440   Si       0.08763    0.91348    0.95407    1.000
    Si1441   Si       0.09050    0.98271    0.98629    1.000
    Si1442   Si       0.03454    0.96505    0.93921    1.000
    N1443    N        0.23748    0.90807    0.95333    1.000
    N1444    N        0.12995    0.91812    0.96206    1.000
    N1445    N        0.22911    0.98006    0.93684    1.000
    N1446    N        0.13448    0.98020    0.98703    1.000
    N1447    N        0.19494    0.94703    0.98584    1.000
    Si1448   Si       0.21420    0.94166    0.94796    1.000
    Si1449   Si       0.16248    0.89565    0.93928    1.000
    Si1450   Si       0.15116    0.93842    0.99632    1.000
    N1451    N        0.31909    0.10592    0.00863    1.000
    N1452    N        0.31478    0.02972    0.03251    1.000
    Si1453   Si       0.27496    0.01764    0.01559    1.000
    N1454    N        0.25525    0.04075    0.04829    1.000
    Si1455   Si       0.35137    0.01440    0.01563    1.000
    Si1456   Si       0.35708    0.08501    0.01851    1.000
    Si1457   Si       0.46394    0.09647    0.03554    1.000
    N1458    N        0.39109    0.10972    0.00464    1.000
    N1459    N        0.37664    0.04905    0.99756    1.000
    N1460    N        0.46690    0.00956    0.03695    1.000
    N1461    N        0.43382    0.07093    0.05146    1.000
    Si1462   Si       0.25214    0.23485    0.04948    1.000
    N1463    N        0.28366    0.24819    0.02420    1.000
    Si1464   Si       0.31708    0.14318    0.03455    1.000
    N1465    N        0.34709    0.22939    0.03199    1.000
    N1466    N        0.29740    0.17903    0.02078    1.000
    Si1467   Si       0.31284    0.21883    0.00998    1.000
    Si1468   Si       0.25911    0.16914    0.00337    1.000
    N1469    N        0.35821    0.15738    0.03533    1.000
    Si1470   Si       0.36943    0.19620    0.05180    1.000
    Si1471   Si       0.44088    0.22035    0.02645    1.000
    N1472    N        0.44942    0.13718    0.03287    1.000
    Si1473   Si       0.40271    0.14631    0.03014    1.000
    N1474    N        0.47654    0.19655    0.03632    1.000
    N1475    N        0.41097    0.19173    0.03651    1.000
    N1476    N        0.30673    0.06481    0.09665    1.000
    Si1477   Si       0.33295    0.09931    0.08710    1.000
    Si1478   Si       0.29241    0.03639    0.07017    1.000
    N1479    N        0.30121    0.12728    0.07155    1.000
    N1480    N        0.36285    0.08404    0.06060    1.000
    Si1481   Si       0.40336    0.09180    0.07397    1.000
    Si1482   Si       0.44241    0.03057    0.06395    1.000
    N1483    N        0.46046    0.03269    0.10419    1.000
    N1484    N        0.40596    0.01268    0.08291    1.000
    Si1485   Si       0.26893    0.13177    0.09982    1.000
    N1486    N        0.26344    0.24493    0.09047    1.000
    Si1487   Si       0.25318    0.20397    0.10208    1.000
    N1488    N        0.24221    0.19071    0.06241    1.000
    N1489    N        0.43663    0.25022    0.06115    1.000
    Si1490   Si       0.45835    0.16717    0.06618    1.000
    Si1491   Si       0.43581    0.23420    0.10306    1.000
    N1492    N        0.47806    0.14160    0.09862    1.000
    N1493    N        0.44207    0.19307    0.09710    1.000
    N1494    N        0.40663    0.13366    0.07337    1.000
    N1495    N        0.36609    0.19133    0.09314    1.000
    Si1496   Si       0.38968    0.15570    0.10544    1.000
    Si1497   Si       0.29474    0.06860    0.13753    1.000
    N1498    N        0.32981    0.08022    0.15730    1.000
    Si1499   Si       0.34733    0.11971    0.15510    1.000
    N1500    N        0.26261    0.09709    0.13154    1.000
    N1501    N        0.27984    0.03204    0.15150    1.000
    N1502    N        0.35548    0.12812    0.11362    1.000
    N1503    N        0.39050    0.03096    0.15099    1.000
    Si1504   Si       0.42129    0.10733    0.14876    1.000
    Si1505   Si       0.41876    0.03635    0.11831    1.000
    N1506    N        0.41386    0.08085    0.11564    1.000
    Si1507   Si       0.36591    0.06188    0.17098    1.000
    N1508    N        0.46021    0.09538    0.16933    1.000
    N1509    N        0.32963    0.21806    0.15151    1.000
    Si1510   Si       0.29974    0.18450    0.15534    1.000
    N1511    N        0.27258    0.16984    0.12075    1.000
    Si1512   Si       0.35813    0.22473    0.11870    1.000
    N1513    N        0.31871    0.14903    0.16692    1.000
    N1514    N        0.47156    0.19654    0.16421    1.000
    Si1515   Si       0.46014    0.17174    0.13023    1.000
    N1516    N        0.39955    0.23559    0.13035    1.000
    N1517    N        0.46688    0.25336    0.12557    1.000
    Si1518   Si       0.39675    0.25176    0.17040    1.000
    N1519    N        0.42083    0.14868    0.13696    1.000
    N1520    N        0.35758    0.06121    0.21532    1.000
    Si1521   Si       0.35358    0.01575    0.22227    1.000
    Si1522   Si       0.25324    0.00794    0.17593    1.000
    Si1523   Si       0.38803    0.09393    0.21800    1.000
    Si1524   Si       0.45710    0.09298    0.21068    1.000
    N1525    N        0.42324    0.06861    0.22035    1.000
    N1526    N        0.38527    0.10453    0.17540    1.000
    N1527    N        0.26590    0.20222    0.17649    1.000
    N1528    N        0.31823    0.19959    0.21907    1.000
    Si1529   Si       0.33701    0.22978    0.19361    1.000
    Si1530   Si       0.27591    0.19956    0.21817    1.000
    Si1531   Si       0.25034    0.24359    0.18443    1.000
    N1532    N        0.26294    0.23967    0.22679    1.000
    Si1533   Si       0.46871    0.19903    0.20840    1.000
    N1534    N        0.43254    0.18863    0.22860    1.000
    N1535    N        0.38026    0.22588    0.20044    1.000
    N1536    N        0.47947    0.24145    0.22008    1.000
    Si1537   Si       0.32373    0.06595    0.24664    1.000
    N1538    N        0.28512    0.08452    0.24437    1.000
    N1539    N        0.31955    0.02245    0.24778    1.000
    Si1540   Si       0.25884    0.07322    0.27711    1.000
    Si1541   Si       0.35428    0.12183    0.27706    1.000
    N1542    N        0.34117    0.07946    0.28310    1.000
    Si1543   Si       0.28067    0.12957    0.25586    1.000
    N1544    N        0.45076    0.02803    0.26431    1.000
    N1545    N        0.39013    0.12436    0.24768    1.000
    N1546    N        0.45987    0.12889    0.23466    1.000
    Si1547   Si       0.42429    0.02645    0.22997    1.000
    Si1548   Si       0.33057    0.18642    0.25926    1.000
    N1549    N        0.32179    0.14454    0.26203    1.000
    N1550    N        0.31564    0.21362    0.28975    1.000
    N1551    N        0.26003    0.16552    0.24051    1.000
    Si1552   Si       0.42539    0.15074    0.25077    1.000
    N1553    N        0.37216    0.20032    0.26658    1.000
    N1554    N        0.41950    0.25297    0.24928    1.000
    Si1555   Si       0.40016    0.21563    0.23789    1.000
    N1556    N        0.28048    0.04952    0.30498    1.000
    Si1557   Si       0.31749    0.06708    0.31817    1.000
    N1558    N        0.30812    0.10298    0.33867    1.000
    Si1559   Si       0.26535    0.01279    0.32420    1.000
    Si1560   Si       0.27209    0.12704    0.33336    1.000
    N1561    N        0.25942    0.11739    0.29130    1.000
    N1562    N        0.45086    0.10447    0.32388    1.000
    N1563    N        0.45608    0.03730    0.33567    1.000
    Si1564   Si       0.48217    0.07346    0.32677    1.000
    Si1565   Si       0.45543    0.00860    0.30182    1.000
    N1566    N        0.27998    0.16961    0.34380    1.000
    Si1567   Si       0.29392    0.24537    0.30898    1.000
    N1568    N        0.25529    0.23744    0.32653    1.000
    N1569    N        0.32777    0.25126    0.33890    1.000
    Si1570   Si       0.35835    0.22391    0.30161    1.000
    N1571    N        0.35966    0.14076    0.31474    1.000
    N1572    N        0.38696    0.21047    0.33148    1.000
    Si1573   Si       0.41000    0.24355    0.34802    1.000
    Si1574   Si       0.39378    0.16758    0.32095    1.000
    N1575    N        0.42866    0.16156    0.29399    1.000
    Si1576   Si       0.47891    0.25482    0.32179    1.000
    N1577    N        0.43611    0.25697    0.31320    1.000
    Si1578   Si       0.46312    0.14590    0.31475    1.000
    N1579    N        0.26955    0.02607    0.36636    1.000
    Si1580   Si       0.24226    0.11579    0.40025    1.000
    Si1581   Si       0.24438    0.04330    0.39671    1.000
    Si1582   Si       0.34728    0.11783    0.35106    1.000
    N1583    N        0.33346    0.04236    0.34985    1.000
    Si1584   Si       0.31119    0.00958    0.36478    1.000
    N1585    N        0.39716    0.01313    0.35925    1.000
    Si1586   Si       0.37215    0.04850    0.36777    1.000
    N1587    N        0.44034    0.09778    0.39084    1.000
    Si1588   Si       0.47576    0.07389    0.39839    1.000
    Si1589   Si       0.43988    0.01536    0.36972    1.000
    N1590    N        0.37978    0.08998    0.35598    1.000
    Si1591   Si       0.41819    0.10891    0.35287    1.000
    N1592    N        0.46329    0.03261    0.40241    1.000
    N1593    N        0.33665    0.13939    0.38796    1.000
    Si1594   Si       0.30057    0.16598    0.38207    1.000
    Si1595   Si       0.32955    0.24097    0.38278    1.000
    N1596    N        0.31794    0.20186    0.39913    1.000
    N1597    N        0.24680    0.21237    0.39185    1.000
    Si1598   Si       0.24995    0.20203    0.35023    1.000
    N1599    N        0.36443    0.25598    0.40540    1.000
    Si1600   Si       0.43717    0.17995    0.37566    1.000
    N1601    N        0.47163    0.16900    0.35243    1.000
    N1602    N        0.43515    0.22137    0.37601    1.000
    Si1603   Si       0.46803    0.24090    0.39501    1.000
    N1604    N        0.40854    0.15078    0.35623    1.000
    N1605    N        0.32834    0.09142    0.44193    1.000
    Si1606   Si       0.28704    0.08412    0.45123    1.000
    N1607    N        0.26254    0.07915    0.41395    1.000
    N1608    N        0.35337    0.02098    0.46348    1.000
    Si1609   Si       0.36126    0.06399    0.44971    1.000
    Si1610   Si       0.36214    0.00751    0.42157    1.000
    Si1611   Si       0.34326    0.13017    0.43035    1.000
    N1612    N        0.44439    0.10435    0.45469    1.000
    Si1613   Si       0.42722    0.12480    0.41834    1.000
    N1614    N        0.38615    0.12528    0.43654    1.000
    Si1615   Si       0.48719    0.10303    0.46057    1.000
    N1616    N        0.37278    0.04805    0.41071    1.000
    N1617    N        0.27363    0.21269    0.44820    1.000
    N1618    N        0.32554    0.15871    0.45882    1.000
    Si1619   Si       0.31660    0.19910    0.44321    1.000
    Si1620   Si       0.26288    0.24359    0.41571    1.000
    Si1621   Si       0.24784    0.18374    0.42702    1.000
    N1622    N        0.34139    0.22769    0.46111    1.000
    N1623    N        0.26774    0.15108    0.40855    1.000
    N1624    N        0.43710    0.16496    0.41790    1.000
    Si1625   Si       0.37902    0.24553    0.44644    1.000
    Si1626   Si       0.43572    0.18259    0.45869    1.000
    N1627    N        0.27169    0.11111    0.48269    1.000
    N1628    N        0.29200    0.05197    0.47913    1.000
    Si1629   Si       0.27010    0.07631    0.51197    1.000
    Si1630   Si       0.31447    0.01513    0.48532    1.000
    N1631    N        0.38342    0.08074    0.48550    1.000
    Si1632   Si       0.40975    0.11436    0.47576    1.000
    N1633    N        0.40446    0.01719    0.51535    1.000
    Si1634   Si       0.39564    0.05986    0.52113    1.000
    Si1635   Si       0.25457    0.14019    0.51050    1.000
    Si1636   Si       0.25736    0.24078    0.47705    1.000
    Si1637   Si       0.32659    0.15449    0.50172    1.000
    N1638    N        0.28851    0.16803    0.51709    1.000
    N1639    N        0.28793    0.25062    0.50482    1.000
    N1640    N        0.36003    0.17696    0.51693    1.000
    Si1641   Si       0.32875    0.25490    0.49242    1.000
    N1642    N        0.47060    0.20811    0.46749    1.000
    N1643    N        0.36330    0.24438    0.51984    1.000
    N1644    N        0.40807    0.21650    0.46738    1.000
    N1645    N        0.42277    0.15418    0.48902    1.000
    Si1646   Si       0.38698    0.20989    0.50655    1.000
    Si1647   Si       0.44432    0.24498    0.46929    1.000
    Si1648   Si       0.33312    0.08751    0.55608    1.000
    N1649    N        0.30198    0.06335    0.54297    1.000
    Si1650   Si       0.29040    0.02752    0.56584    1.000
    N1651    N        0.33724    0.12292    0.53164    1.000
    N1652    N        0.24834    0.10890    0.54203    1.000
    Si1653   Si       0.47213    0.06662    0.52599    1.000
    N1654    N        0.37022    0.06449    0.55523    1.000
    N1655    N        0.47181    0.02516    0.53927    1.000
    Si1656   Si       0.43336    0.10613    0.57290    1.000
    N1657    N        0.43250    0.08239    0.53402    1.000
    N1658    N        0.25403    0.22201    0.56120    1.000
    Si1659   Si       0.28467    0.19029    0.55419    1.000
    N1660    N        0.31695    0.21830    0.56230    1.000
    Si1661   Si       0.34684    0.24890    0.56082    1.000
    Si1662   Si       0.28639    0.25136    0.54987    1.000
    N1663    N        0.41668    0.20264    0.53792    1.000
    N1664    N        0.40623    0.13638    0.55519    1.000
    Si1665   Si       0.43405    0.16190    0.53154    1.000
    Si1666   Si       0.36399    0.15211    0.55420    1.000
    Si1667   Si       0.41094    0.22597    0.57599    1.000
    N1668    N        0.47913    0.15356    0.53309    1.000
    Si1669   Si       0.28876    0.07782    0.61515    1.000
    N1670    N        0.25452    0.10640    0.61715    1.000
    N1671    N        0.27128    0.04048    0.60217    1.000
    N1672    N        0.31855    0.10062    0.59406    1.000
    Si1673   Si       0.24994    0.01813    0.63336    1.000
    N1674    N        0.36224    0.03570    0.62080    1.000
    Si1675   Si       0.25140    0.13126    0.58045    1.000
    N1676    N        0.41994    0.07537    0.60235    1.000
    Si1677   Si       0.45662    0.04288    0.61692    1.000
    Si1678   Si       0.38941    0.04515    0.59010    1.000
    N1679    N        0.41396    0.13290    0.63714    1.000
    N1680    N        0.46291    0.13011    0.59494    1.000
    N1681    N        0.41790    0.01383    0.58360    1.000
    Si1682   Si       0.31599    0.14277    0.60781    1.000
    N1683    N        0.35278    0.15787    0.59547    1.000
    N1684    N        0.28315    0.15934    0.58477    1.000
    Si1685   Si       0.38498    0.16153    0.62494    1.000
    N1686    N        0.45210    0.24033    0.63223    1.000
    Si1687   Si       0.45799    0.14740    0.63596    1.000
    N1688    N        0.37823    0.24996    0.59118    1.000
    N1689    N        0.40693    0.19454    0.60811    1.000
    N1690    N        0.26260    0.10392    0.68861    1.000
    Si1691   Si       0.34830    0.04972    0.65716    1.000
    N1692    N        0.30940    0.07187    0.65283    1.000
    N1693    N        0.34106    0.02534    0.69116    1.000
    Si1694   Si       0.29949    0.08254    0.69199    1.000
    Si1695   Si       0.29815    0.01150    0.69438    1.000
    Si1696   Si       0.26381    0.13022    0.65521    1.000
    Si1697   Si       0.24002    0.06490    0.69524    1.000
    N1698    N        0.37733    0.08191    0.66706    1.000
    N1699    N        0.43874    0.05127    0.65706    1.000
    Si1700   Si       0.45800    0.04764    0.69448    1.000
    N1701    N        0.47268    0.11893    0.66591    1.000
    Si1702   Si       0.41409    0.08837    0.64183    1.000
    N1703    N        0.25470    0.22742    0.66823    1.000
    Si1704   Si       0.28919    0.24350    0.68973    1.000
    Si1705   Si       0.32336    0.17577    0.67463    1.000
    N1706    N        0.32239    0.21854    0.67532    1.000
    N1707    N        0.30334    0.14619    0.64921    1.000
    Si1708   Si       0.39654    0.16812    0.69387    1.000
    Si1709   Si       0.41902    0.21439    0.64519    1.000
    N1710    N        0.43139    0.18266    0.67249    1.000
    Si1711   Si       0.36206    0.22849    0.68934    1.000
    N1712    N        0.47779    0.22579    0.69420    1.000
    N1713    N        0.38698    0.24025    0.65666    1.000
    N1714    N        0.36499    0.16973    0.66185    1.000
    N1715    N        0.32944    0.10113    0.71280    1.000
    N1716    N        0.27880    0.04761    0.71307    1.000
    Si1717   Si       0.29042    0.04742    0.75591    1.000
    Si1718   Si       0.35988    0.02686    0.73018    1.000
    N1719    N        0.32650    0.02160    0.75773    1.000
    N1720    N        0.38338    0.06260    0.73653    1.000
    N1721    N        0.44600    0.08157    0.71699    1.000
    Si1722   Si       0.46985    0.11660    0.70849    1.000
    Si1723   Si       0.42225    0.07478    0.75308    1.000
    N1724    N        0.45243    0.01404    0.72202    1.000
    Si1725   Si       0.37353    0.09345    0.70742    1.000
    Si1726   Si       0.47172    0.02520    0.75923    1.000
    Si1727   Si       0.33933    0.13859    0.73185    1.000
    N1728    N        0.31417    0.16962    0.71611    1.000
    Si1729   Si       0.28193    0.19487    0.73732    1.000
    N1730    N        0.29071    0.23926    0.73388    1.000
    Si1731   Si       0.33066    0.24786    0.75169    1.000
    N1732    N        0.24271    0.18707    0.72309    1.000
    N1733    N        0.35909    0.25985    0.72034    1.000
    N1734    N        0.38114    0.13593    0.71740    1.000
    N1735    N        0.38415    0.20240    0.71733    1.000
    N1736    N        0.45932    0.15487    0.72895    1.000
    Si1737   Si       0.46856    0.18412    0.69752    1.000
    Si1738   Si       0.31366    0.11329    0.79750    1.000
    N1739    N        0.28947    0.08466    0.77645    1.000
    Si1740   Si       0.25330    0.10321    0.79098    1.000
    N1741    N        0.26702    0.01961    0.78033    1.000
    Si1742   Si       0.24775    0.03580    0.81563    1.000
    N1743    N        0.27372    0.12975    0.81717    1.000
    N1744    N        0.43139    0.11007    0.77639    1.000
    N1745    N        0.44242    0.04907    0.78382    1.000
    Si1746   Si       0.45490    0.08710    0.80277    1.000
    Si1747   Si       0.43216    0.01262    0.80530    1.000
    N1748    N        0.33853    0.13992    0.77458    1.000
    N1749    N        0.28633    0.18076    0.77885    1.000
    N1750    N        0.34839    0.21655    0.77912    1.000
    Si1751   Si       0.32844    0.17787    0.79005    1.000
    Si1752   Si       0.25881    0.17038    0.80936    1.000
    N1753    N        0.46964    0.22686    0.79500    1.000
    Si1754   Si       0.38909    0.20853    0.75997    1.000
    N1755    N        0.40958    0.24756    0.76266    1.000
    Si1756   Si       0.43981    0.15118    0.76884    1.000
    N1757    N        0.40958    0.17955    0.78359    1.000
    N1758    N        0.47382    0.15828    0.79901    1.000
    Si1759   Si       0.34734    0.06761    0.85917    1.000
    N1760    N        0.25916    0.02067    0.85421    1.000
    N1761    N        0.34145    0.09850    0.82660    1.000
    N1762    N        0.35728    0.02493    0.86696    1.000
    N1763    N        0.44246    0.08570    0.84247    1.000
    Si1764   Si       0.46094    0.05401    0.86629    1.000
    N1765    N        0.44577    0.01900    0.84532    1.000
    Si1766   Si       0.41811    0.11373    0.86609    1.000
    Si1767   Si       0.35512    0.13349    0.84727    1.000
    Si1768   Si       0.25644    0.13429    0.85879    1.000
    N1769    N        0.33409    0.16742    0.83186    1.000
    Si1770   Si       0.30834    0.18949    0.86248    1.000
    N1771    N        0.31181    0.22651    0.83897    1.000
    N1772    N        0.24982    0.24708    0.86161    1.000
    N1773    N        0.26663    0.17782    0.85504    1.000
    Si1774   Si       0.35313    0.22633    0.82061    1.000
    Si1775   Si       0.24240    0.20755    0.87564    1.000
    N1776    N        0.39220    0.21729    0.83806    1.000
    N1777    N        0.39619    0.14544    0.84620    1.000
    N1778    N        0.45121    0.18976    0.85190    1.000
    N1779    N        0.48377    0.25720    0.87820    1.000
    Si1780   Si       0.47973    0.19511    0.82041    1.000
    Si1781   Si       0.41323    0.18126    0.82749    1.000
    Si1782   Si       0.30458    0.10229    0.90364    1.000
    Si1783   Si       0.27790    0.03710    0.88949    1.000
    N1784    N        0.24703    0.04356    0.91796    1.000
    N1785    N        0.26748    0.12319    0.89814    1.000
    Si1786   Si       0.34286    0.00836    0.90531    1.000
    N1787    N        0.33587    0.12908    0.88554    1.000
    N1788    N        0.29989    0.00932    0.91408    1.000
    Si1789   Si       0.24469    0.13279    0.93451    1.000
    N1790    N        0.30821    0.06775    0.88045    1.000
    N1791    N        0.43819    0.05335    0.90485    1.000
    Si1792   Si       0.39878    0.06563    0.91358    1.000
    N1793    N        0.37480    0.03367    0.92982    1.000
    Si1794   Si       0.45839    0.02670    0.93319    1.000
    N1795    N        0.38526    0.08298    0.87408    1.000
    Si1796   Si       0.33761    0.22453    0.93128    1.000
    N1797    N        0.32804    0.19253    0.90182    1.000
    N1798    N        0.25779    0.21820    0.91773    1.000
    Si1799   Si       0.34888    0.15779    0.91661    1.000
    N1800    N        0.44946    0.13131    0.88999    1.000
    N1801    N        0.39201    0.16080    0.92557    1.000
    Si1802   Si       0.45720    0.17484    0.89413    1.000
    N1803    N        0.44535    0.20219    0.92580    1.000
    Si1804   Si       0.26268    0.06310    0.95274    1.000
    N1805    N        0.27003    0.02543    0.97532    1.000
    Si1806   Si       0.30502    0.12174    0.97096    1.000
    N1807    N        0.29743    0.08690    0.94442    1.000
    N1808    N        0.23778    0.09589    0.96373    1.000
    Si1809   Si       0.39000    0.01667    0.96781    1.000
    N1810    N        0.40158    0.09328    0.94819    1.000
    N1811    N        0.43378    0.03421    0.96982    1.000
    Si1812   Si       0.41477    0.07423    0.98510    1.000
    N1813    N        0.45535    0.09269    0.99108    1.000
    Si1814   Si       0.38881    0.13215    0.96056    1.000
    N1815    N        0.34194    0.13725    0.95562    1.000
    N1816    N        0.31383    0.21541    0.96553    1.000
    Si1817   Si       0.27481    0.19987    0.95162    1.000
    N1818    N        0.27436    0.15140    0.96124    1.000
    N1819    N        0.24349    0.20219    0.98274    1.000
    N1820    N        0.43632    0.22065    0.98401    1.000
    Si1821   Si       0.45388    0.13676    0.98950    1.000
    N1822    N        0.41969    0.15771    0.97818    1.000
    Si1823   Si       0.41219    0.19426    0.95290    1.000
    N1824    N        0.38018    0.22520    0.94518    1.000
    Si1825   Si       0.46632    0.23083    0.95206    1.000
    Si1826   Si       0.28953    0.29154    0.02190    1.000
    N1827    N        0.25847    0.31749    0.03468    1.000
    N1828    N        0.32866    0.30155    0.03834    1.000
    Si1829   Si       0.33579    0.32676    0.00070    1.000
    N1830    N        0.35975    0.35356    0.02426    1.000
    Si1831   Si       0.35221    0.26704    0.05239    1.000
    Si1832   Si       0.46389    0.35790    0.04430    1.000
    Si1833   Si       0.42931    0.29080    0.04704    1.000
    Si1834   Si       0.39448    0.37740    0.03358    1.000
    N1835    N        0.43266    0.37060    0.01701    1.000
    N1836    N        0.43402    0.28943    0.00429    1.000
    N1837    N        0.25357    0.43889    0.01444    1.000
    N1838    N        0.32144    0.43285    0.02731    1.000
    Si1839   Si       0.33319    0.47798    0.02866    1.000
    Si1840   Si       0.23959    0.40389    0.03946    1.000
    Si1841   Si       0.23864    0.48023    0.01841    1.000
    Si1842   Si       0.29301    0.43719    0.99625    1.000
    N1843    N        0.38904    0.41886    0.04084    1.000
    Si1844   Si       0.40698    0.45576    0.02458    1.000
    N1845    N        0.37206    0.47698    0.00747    1.000
    Si1846   Si       0.47038    0.47459    0.04933    1.000
    N1847    N        0.42807    0.47714    0.05437    1.000
    Si1848   Si       0.25839    0.33878    0.07581    1.000
    N1849    N        0.27628    0.31225    0.10549    1.000
    N1850    N        0.34683    0.33069    0.10753    1.000
    N1851    N        0.35063    0.26168    0.09637    1.000
    Si1852   Si       0.36013    0.32934    0.06130    1.000
    Si1853   Si       0.36253    0.37434    0.10604    1.000
    N1854    N        0.39193    0.35971    0.07639    1.000
    Si1855   Si       0.42197    0.33713    0.09741    1.000
    N1856    N        0.44924    0.32326    0.06521    1.000
    N1857    N        0.38598    0.29582    0.05580    1.000
    N1858    N        0.26766    0.38035    0.06410    1.000
    Si1859   Si       0.29262    0.39918    0.09360    1.000
    N1860    N        0.33415    0.39768    0.08595    1.000
    N1861    N        0.34835    0.46739    0.07015    1.000
    N1862    N        0.27266    0.43638    0.11069    1.000
    Si1863   Si       0.35077    0.42568    0.05677    1.000
    Si1864   Si       0.35502    0.48084    0.11173    1.000
    N1865    N        0.24447    0.49576    0.05764    1.000
    Si1866   Si       0.47118    0.39200    0.11403    1.000
    N1867    N        0.47726    0.38903    0.07054    1.000
    Si1868   Si       0.30885    0.33166    0.12678    1.000
    N1869    N        0.28908    0.37088    0.12730    1.000
    N1870    N        0.26374    0.27625    0.16099    1.000
    Si1871   Si       0.25268    0.27730    0.11793    1.000
    N1872    N        0.31451    0.32147    0.17019    1.000
    N1873    N        0.36606    0.28188    0.16187    1.000
    Si1874   Si       0.44807    0.28658    0.14296    1.000
    N1875    N        0.41202    0.30272    0.12024    1.000
    N1876    N        0.47637    0.31507    0.15572    1.000
    N1877    N        0.43867    0.36564    0.12357    1.000
    Si1878   Si       0.36988    0.29396    0.12024    1.000
    Si1879   Si       0.26068    0.38766    0.15733    1.000
    N1880    N        0.28023    0.49070    0.15960    1.000
    N1881    N        0.33850    0.45317    0.14070    1.000
    Si1882   Si       0.29442    0.45047    0.14531    1.000
    N1883    N        0.39694    0.48171    0.11632    1.000
    Si1884   Si       0.42100    0.39703    0.14931    1.000
    N1885    N        0.44838    0.42855    0.12668    1.000
    N1886    N        0.37950    0.39293    0.14088    1.000
    Si1887   Si       0.42936    0.46635    0.14169    1.000
    Si1888   Si       0.36869    0.43059    0.16432    1.000
    N1889    N        0.45879    0.49732    0.14789    1.000
    Si1890   Si       0.34315    0.30104    0.19472    1.000
    N1891    N        0.25020    0.35043    0.18210    1.000
    Si1892   Si       0.27417    0.31290    0.18074    1.000
    N1893    N        0.32204    0.26576    0.21074    1.000
    N1894    N        0.27132    0.30786    0.22348    1.000
    N1895    N        0.35661    0.32301    0.22936    1.000
    Si1896   Si       0.44691    0.26874    0.22137    1.000
    N1897    N        0.43354    0.26910    0.18033    1.000
    Si1898   Si       0.47033    0.37581    0.21561    1.000
    Si1899   Si       0.30719    0.42295    0.21465    1.000
    N1900    N        0.34986    0.42860    0.20474    1.000
    Si1901   Si       0.27116    0.49130    0.20180    1.000
    N1902    N        0.28572    0.41795    0.17591    1.000
    N1903    N        0.29423    0.46178    0.22747    1.000
    Si1904   Si       0.43869    0.43380    0.20759    1.000
    N1905    N        0.44143    0.38870    0.18554    1.000
    N1906    N        0.47879    0.41798    0.22406    1.000
    N1907    N        0.44818    0.47819    0.20912    1.000
    N1908    N        0.41116    0.44109    0.17190    1.000
    Si1909   Si       0.29000    0.27214    0.23915    1.000
    N1910    N        0.29017    0.27948    0.28239    1.000
    N1911    N        0.36550    0.26635    0.28933    1.000
    Si1912   Si       0.36974    0.33262    0.26933    1.000
    N1913    N        0.44499    0.36467    0.24928    1.000
    N1914    N        0.40798    0.31390    0.27255    1.000
    Si1915   Si       0.44828    0.32758    0.26800    1.000
    N1916    N        0.37589    0.37569    0.26781    1.000
    N1917    N        0.46944    0.29994    0.24045    1.000
    Si1918   Si       0.40856    0.27249    0.28585    1.000
    Si1919   Si       0.27283    0.38927    0.26874    1.000
    Si1920   Si       0.30464    0.45790    0.27025    1.000
    Si1921   Si       0.34013    0.39821    0.27532    1.000
    N1922    N        0.30892    0.39235    0.24568    1.000
    N1923    N        0.34318    0.44001    0.27047    1.000
    N1924    N        0.30155    0.49878    0.28532    1.000
    Si1925   Si       0.39044    0.48785    0.28750    1.000
    Si1926   Si       0.41544    0.39126    0.26701    1.000
    N1927    N        0.41011    0.42669    0.24129    1.000
    N1928    N        0.43018    0.50593    0.28380    1.000
    Si1929   Si       0.37210    0.44678    0.23882    1.000
    N1930    N        0.37976    0.48901    0.24575    1.000
    Si1931   Si       0.31281    0.35133    0.32504    1.000
    Si1932   Si       0.34963    0.28778    0.32432    1.000
    N1933    N        0.29307    0.31279    0.34026    1.000
    N1934    N        0.34529    0.32741    0.30555    1.000
    Si1935   Si       0.26914    0.31300    0.30319    1.000
    N1936    N        0.27923    0.35510    0.29566    1.000
    N1937    N        0.46668    0.33030    0.30752    1.000
    Si1938   Si       0.46193    0.36804    0.32856    1.000
    N1939    N        0.38586    0.28003    0.35017    1.000
    N1940    N        0.32893    0.39080    0.31666    1.000
    Si1941   Si       0.24935    0.44594    0.32347    1.000
    N1942    N        0.24164    0.48950    0.32841    1.000
    N1943    N        0.27152    0.43181    0.28901    1.000
    Si1944   Si       0.42494    0.42720    0.33415    1.000
    N1945    N        0.42996    0.39069    0.30847    1.000
    N1946    N        0.46776    0.43990    0.33896    1.000
    N1947    N        0.40187    0.46058    0.31788    1.000
    Si1948   Si       0.39773    0.49617    0.34683    1.000
    Si1949   Si       0.29586    0.30485    0.38349    1.000
    N1950    N        0.33765    0.31775    0.38950    1.000
    N1951    N        0.29604    0.26440    0.39770    1.000
    N1952    N        0.30146    0.37444    0.37107    1.000
    Si1953   Si       0.32545    0.35678    0.40408    1.000
    N1954    N        0.26256    0.32491    0.40591    1.000
    Si1955   Si       0.37494    0.29575    0.39016    1.000
    N1956    N        0.46603    0.36624    0.37342    1.000
    N1957    N        0.48242    0.26887    0.36291    1.000
    N1958    N        0.40823    0.31598    0.40417    1.000
    Si1959   Si       0.26489    0.39883    0.38578    1.000
    N1960    N        0.34420    0.44023    0.36417    1.000
    Si1961   Si       0.33256    0.47975    0.37891    1.000
    N1962    N        0.30680    0.50115    0.35233    1.000
    N1963    N        0.27304    0.42998    0.35567    1.000
    N1964    N        0.25336    0.50802    0.39882    1.000
    Si1965   Si       0.31383    0.41369    0.34964    1.000
    N1966    N        0.42920    0.47951    0.37680    1.000
    N1967    N        0.46404    0.42935    0.40482    1.000
    N1968    N        0.40923    0.41338    0.37108    1.000
    Si1969   Si       0.43943    0.39506    0.39607    1.000
    Si1970   Si       0.37174    0.42083    0.38950    1.000
    Si1971   Si       0.46836    0.46269    0.37723    1.000
    N1972    N        0.37093    0.49863    0.38185    1.000
    N1973    N        0.31713    0.35294    0.44749    1.000
    N1974    N        0.24852    0.27149    0.44457    1.000
    Si1975   Si       0.24582    0.31389    0.44583    1.000
    Si1976   Si       0.35475    0.38105    0.45543    1.000
    Si1977   Si       0.43143    0.29935    0.43540    1.000
    N1978    N        0.45080    0.33111    0.45651    1.000
    N1979    N        0.40082    0.28300    0.46069    1.000
    N1980    N        0.45280    0.26252    0.42915    1.000
    N1981    N        0.31063    0.46775    0.41469    1.000
    N1982    N        0.26656    0.46476    0.46005    1.000
    Si1983   Si       0.29895    0.43425    0.44092    1.000
    Si1984   Si       0.28011    0.49366    0.43109    1.000
    N1985    N        0.26693    0.41144    0.42596    1.000
    N1986    N        0.35710    0.38468    0.41036    1.000
    N1987    N        0.42632    0.47710    0.44907    1.000
    Si1988   Si       0.40279    0.48738    0.41216    1.000
    N1989    N        0.42053    0.39355    0.43649    1.000
    N1990    N        0.38281    0.44759    0.42030    1.000
    Si1991   Si       0.41090    0.43373    0.45062    1.000
    Si1992   Si       0.31231    0.32668    0.48036    1.000
    N1993    N        0.26827    0.32717    0.48177    1.000
    N1994    N        0.33791    0.29324    0.47700    1.000
    N1995    N        0.32756    0.33962    0.52010    1.000
    Si1996   Si       0.24309    0.33513    0.51488    1.000
    N1997    N        0.46157    0.26838    0.50236    1.000
    Si1998   Si       0.37886    0.30958    0.48679    1.000
    N1999    N        0.40309    0.30924    0.52377    1.000
    N2000    N        0.43966    0.37276    0.50528    1.000
    N2001    N        0.38046    0.35193    0.47316    1.000
    Si2002   Si       0.42142    0.36349    0.46615    1.000
    N2003    N        0.32504    0.47269    0.49581    1.000
    Si2004   Si       0.34887    0.43441    0.50218    1.000
    Si2005   Si       0.28215    0.46909    0.50023    1.000
    Si2006   Si       0.35692    0.49826    0.51147    1.000
    N2007    N        0.26573    0.50542    0.51418    1.000
    N2008    N        0.32973    0.41572    0.46441    1.000
    N2009    N        0.46904    0.43042    0.47206    1.000
    Si2010   Si       0.40824    0.44127    0.52579    1.000
    Si2011   Si       0.46129    0.47358    0.47520    1.000
    N2012    N        0.39121    0.42473    0.48857    1.000
    N2013    N        0.43601    0.46982    0.51289    1.000
    Si2014   Si       0.47187    0.40465    0.50821    1.000
    N2015    N        0.26507    0.32559    0.55469    1.000
    Si2016   Si       0.34624    0.36769    0.54529    1.000
    Si2017   Si       0.30790    0.32090    0.55491    1.000
    N2018    N        0.31821    0.28111    0.55841    1.000
    Si2019   Si       0.25296    0.36796    0.56723    1.000
    Si2020   Si       0.42089    0.34844    0.53641    1.000
    Si2021   Si       0.43783    0.28541    0.53587    1.000
    N2022    N        0.45372    0.32351    0.55387    1.000
    N2023    N        0.38984    0.37016    0.55348    1.000
    N2024    N        0.43837    0.26008    0.56955    1.000
    Si2025   Si       0.48756    0.33155    0.57938    1.000
    Si2026   Si       0.30085    0.42449    0.55682    1.000
    N2027    N        0.33317    0.40736    0.53294    1.000
    Si2028   Si       0.35824    0.46020    0.57672    1.000
    N2029    N        0.31405    0.45803    0.57887    1.000
    N2030    N        0.27169    0.43476    0.52420    1.000
    N2031    N        0.28151    0.39500    0.58070    1.000
    N2032    N        0.45829    0.48724    0.57470    1.000
    N2033    N        0.42926    0.42508    0.55983    1.000
    N2034    N        0.37111    0.46160    0.53492    1.000
    Si2035   Si       0.46368    0.44605    0.56883    1.000
    Si2036   Si       0.45430    0.50462    0.53199    1.000
    Si2037   Si       0.30528    0.36987    0.60958    1.000
    N2038    N        0.26111    0.27947    0.61123    1.000
    N2039    N        0.28316    0.33788    0.63014    1.000
    N2040    N        0.33776    0.28756    0.63533    1.000
    Si2041   Si       0.29499    0.29482    0.63468    1.000
    N2042    N        0.33008    0.34934    0.58157    1.000
    Si2043   Si       0.23771    0.30658    0.58343    1.000
    Si2044   Si       0.44601    0.27525    0.60858    1.000
    Si2045   Si       0.37736    0.27140    0.62893    1.000
    N2046    N        0.41641    0.29339    0.63403    1.000
    N2047    N        0.48090    0.30046    0.60892    1.000
    N2048    N        0.42769    0.38038    0.61250    1.000
    Si2049   Si       0.28718    0.48701    0.59951    1.000
    N2050    N        0.29202    0.50456    0.64058    1.000
    N2051    N        0.24591    0.48000    0.58403    1.000
    Si2052   Si       0.40367    0.39845    0.58324    1.000
    Si2053   Si       0.39388    0.50963    0.62873    1.000
    N2054    N        0.48405    0.43254    0.60439    1.000
    Si2055   Si       0.46889    0.39437    0.61710    1.000
    Si2056   Si       0.37996    0.43694    0.63997    1.000
    N2057    N        0.37365    0.42554    0.59890    1.000
    N2058    N        0.37724    0.49601    0.59024    1.000
    Si2059   Si       0.27303    0.36638    0.66131    1.000
    N2060    N        0.28660    0.28366    0.67600    1.000
    Si2061   Si       0.25138    0.30414    0.69391    1.000
    N2062    N        0.26120    0.34559    0.69816    1.000
    N2063    N        0.42310    0.34253    0.68194    1.000
    Si2064   Si       0.43638    0.30292    0.67099    1.000
    Si2065   Si       0.42406    0.37803    0.65711    1.000
    N2066    N        0.48472    0.29955    0.68056    1.000
    Si2067   Si       0.33047    0.49587    0.65803    1.000
    Si2068   Si       0.31711    0.42451    0.67418    1.000
    N2069    N        0.27855    0.44024    0.68585    1.000
    N2070    N        0.34163    0.45444    0.65319    1.000
    N2071    N        0.30878    0.39110    0.64841    1.000
    N2072    N        0.25189    0.51035    0.69955    1.000
    Si2073   Si       0.41251    0.47514    0.69188    1.000
    N2074    N        0.39555    0.40738    0.66925    1.000
    Si2075   Si       0.47683    0.42544    0.68528    1.000
    N2076    N        0.40529    0.47183    0.64915    1.000
    N2077    N        0.45441    0.46323    0.69077    1.000
    N2078    N        0.46444    0.39514    0.65984    1.000
    Si2079   Si       0.27266    0.35037    0.73962    1.000
    N2080    N        0.31676    0.34996    0.73866    1.000
    N2081    N        0.25117    0.29559    0.73662    1.000
    Si2082   Si       0.34455    0.32476    0.75838    1.000
    N2083    N        0.43137    0.27794    0.70513    1.000
    Si2084   Si       0.47324    0.26710    0.71267    1.000
    Si2085   Si       0.39757    0.27537    0.73298    1.000
    N2086    N        0.38214    0.31623    0.73972    1.000
    Si2087   Si       0.40962    0.34460    0.72455    1.000
    N2088    N        0.44924    0.34486    0.74771    1.000
    N2089    N        0.46971    0.27772    0.75949    1.000
    Si2090   Si       0.25084    0.42798    0.74801    1.000
    Si2091   Si       0.28323    0.48064    0.70622    1.000
    Si2092   Si       0.31941    0.39376    0.74372    1.000
    N2093    N        0.33649    0.41321    0.71012    1.000
    N2094    N        0.27736    0.39460    0.73976    1.000
    N2095    N        0.27457    0.46356    0.74440    1.000
    N2096    N        0.32093    0.50123    0.70157    1.000
    N2097    N        0.40395    0.38618    0.73222    1.000
    N2098    N        0.39013    0.45303    0.72120    1.000
    N2099    N        0.47660    0.40631    0.72327    1.000
    Si2100   Si       0.44597    0.38757    0.74823    1.000
    Si2101   Si       0.38002    0.41354    0.70916    1.000
    Si2102   Si       0.39120    0.47367    0.76015    1.000
    N2103    N        0.34483    0.33777    0.80005    1.000
    Si2104   Si       0.32115    0.37359    0.81019    1.000
    N2105    N        0.32181    0.28734    0.77044    1.000
    N2106    N        0.28103    0.35896    0.80796    1.000
    Si2107   Si       0.33323    0.29720    0.81357    1.000
    N2108    N        0.26016    0.26325    0.79782    1.000
    Si2109   Si       0.27993    0.27485    0.75979    1.000
    Si2110   Si       0.47615    0.32024    0.76899    1.000
    N2111    N        0.48394    0.32226    0.81183    1.000
    Si2112   Si       0.44162    0.25998    0.78738    1.000
    Si2113   Si       0.33647    0.44520    0.80724    1.000
    Si2114   Si       0.27241    0.48472    0.78235    1.000
    N2115    N        0.31257    0.48060    0.79856    1.000
    N2116    N        0.32825    0.40758    0.78512    1.000
    N2117    N        0.24353    0.47989    0.81469    1.000
    N2118    N        0.45023    0.40617    0.78705    1.000
    N2119    N        0.43221    0.47537    0.77225    1.000
    Si2120   Si       0.45158    0.44711    0.79910    1.000
    N2121    N        0.37659    0.45716    0.79767    1.000
    Si2122   Si       0.27579    0.32861    0.84040    1.000
    N2123    N        0.30378    0.29428    0.84326    1.000
    N2124    N        0.28359    0.35376    0.87465    1.000
    N2125    N        0.36269    0.26888    0.82520    1.000
    Si2126   Si       0.28147    0.25696    0.83624    1.000
    Si2127   Si       0.44758    0.31868    0.84100    1.000
    N2128    N        0.43200    0.35720    0.83476    1.000
    N2129    N        0.43006    0.28260    0.82295    1.000
    Si2130   Si       0.39993    0.25976    0.84477    1.000
    Si2131   Si       0.32236    0.48478    0.87772    1.000
    Si2132   Si       0.33903    0.42384    0.87814    1.000
    N2133    N        0.33479    0.38914    0.84880    1.000
    N2134    N        0.34412    0.45924    0.85034    1.000
    Si2135   Si       0.24610    0.50380    0.85047    1.000
    N2136    N        0.28723    0.50538    0.86481    1.000
    Si2137   Si       0.38271    0.47788    0.83496    1.000
    N2138    N        0.41118    0.48928    0.87001    1.000
    Si2139   Si       0.45155    0.39454    0.83009    1.000
    N2140    N        0.43454    0.43495    0.83842    1.000
    Si2141   Si       0.25411    0.36744    0.90502    1.000
    N2142    N        0.28379    0.28889    0.90655    1.000
    N2143    N        0.34479    0.32618    0.89268    1.000
    Si2144   Si       0.32046    0.28928    0.88490    1.000
    Si2145   Si       0.24922    0.26160    0.90727    1.000
    Si2146   Si       0.32593    0.36123    0.87948    1.000
    N2147    N        0.34400    0.26150    0.90833    1.000
    N2148    N        0.40955    0.26044    0.88622    1.000
    N2149    N        0.44863    0.31707    0.88511    1.000
    N2150    N        0.39964    0.36308    0.91515    1.000
    Si2151   Si       0.44052    0.35072    0.91387    1.000
    Si2152   Si       0.44996    0.27497    0.89705    1.000
    Si2153   Si       0.36957    0.33343    0.92602    1.000
    Si2154   Si       0.38569    0.26356    0.92312    1.000
    N2155    N        0.33620    0.38953    0.91146    1.000
    N2156    N        0.31379    0.44992    0.90152    1.000
    N2157    N        0.24959    0.41111    0.90818    1.000
    Si2158   Si       0.28056    0.43476    0.92643    1.000
    N2159    N        0.46861    0.38103    0.90326    1.000
    N2160    N        0.43912    0.44404    0.91736    1.000
    Si2161   Si       0.37698    0.39995    0.92403    1.000
    Si2162   Si       0.47065    0.41579    0.92736    1.000
    Si2163   Si       0.41967    0.44763    0.87819    1.000
    N2164    N        0.38317    0.42431    0.88808    1.000
    N2165    N        0.34500    0.34636    0.96036    1.000
    N2166    N        0.30086    0.30536    0.98257    1.000
    Si2167   Si       0.27640    0.30863    0.94729    1.000
    Si2168   Si       0.31244    0.37540    0.94756    1.000
    N2169    N        0.24091    0.28454    0.94772    1.000
    N2170    N        0.27411    0.35283    0.94149    1.000
    N2171    N        0.45372    0.27070    0.94091    1.000
    Si2172   Si       0.43277    0.30086    0.96434    1.000
    Si2173   Si       0.46280    0.36673    0.98320    1.000
    N2174    N        0.45069    0.33784    0.95416    1.000
    N2175    N        0.39300    0.30159    0.94274    1.000
    N2176    N        0.29577    0.41286    0.96007    1.000
    N2177    N        0.31487    0.47353    0.98061    1.000
    Si2178   Si       0.35710    0.46269    0.96729    1.000
    Si2179   Si       0.28479    0.50036    0.96379    1.000
    N2180    N        0.26415    0.47436    0.93787    1.000
    N2181    N        0.47260    0.40482    0.96753    1.000
    N2182    N        0.37883    0.42659    0.95649    1.000
    Si2183   Si       0.47823    0.44267    0.98723    1.000
    N2184    N        0.38441    0.48492    0.93858    1.000
    Si2185   Si       0.41442    0.45460    0.95057    1.000
    N2186    N        0.43443    0.45519    0.98856    1.000
    Si2187   Si       0.28006    0.53583    0.02793    1.000
    Si2188   Si       0.32864    0.59282    0.02241    1.000
    N2189    N        0.31488    0.51373    0.04137    1.000
    N2190    N        0.24702    0.55802    0.04340    1.000
    N2191    N        0.29951    0.56685    0.00337    1.000
    N2192    N        0.25937    0.51384    0.99583    1.000
    N2193    N        0.47851    0.50842    0.02459    1.000
    N2194    N        0.37117    0.59056    0.01369    1.000
    N2195    N        0.43027    0.55687    0.02556    1.000
    Si2196   Si       0.39259    0.57100    0.04440    1.000
    Si2197   Si       0.46199    0.54083    0.05114    1.000
    N2198    N        0.31588    0.63316    0.03639    1.000
    Si2199   Si       0.31775    0.67500    0.03008    1.000
    Si2200   Si       0.24685    0.69719    0.02255    1.000
    Si2201   Si       0.35280    0.73075    0.01138    1.000
    N2202    N        0.28610    0.69307    0.00645    1.000
    N2203    N        0.34103    0.70605    0.04736    1.000
    N2204    N        0.24266    0.73829    0.03240    1.000
    Si2205   Si       0.43617    0.74322    0.02331    1.000
    Si2206   Si       0.42564    0.66496    0.05085    1.000
    N2207    N        0.43941    0.70092    0.03043    1.000
    N2208    N        0.39039    0.74748    0.02551    1.000
    N2209    N        0.41954    0.64500    0.01108    1.000
    Si2210   Si       0.30885    0.61394    0.07465    1.000
    Si2211   Si       0.33744    0.53558    0.07128    1.000
    N2212    N        0.26592    0.61173    0.08068    1.000
    N2213    N        0.32580    0.57635    0.06207    1.000
    N2214    N        0.32928    0.51589    0.11183    1.000
    Si2215   Si       0.24826    0.58380    0.11199    1.000
    N2216    N        0.25474    0.54097    0.10935    1.000
    N2217    N        0.44094    0.53392    0.09087    1.000
    N2218    N        0.40147    0.59724    0.07765    1.000
    N2219    N        0.38111    0.53425    0.06629    1.000
    Si2220   Si       0.41655    0.56809    0.10802    1.000
    Si2221   Si       0.47489    0.51611    0.11267    1.000
    Si2222   Si       0.40893    0.50407    0.08186    1.000
    N2223    N        0.33646    0.62950    0.10280    1.000
    Si2224   Si       0.24991    0.65350    0.08883    1.000
    N2225    N        0.28286    0.67656    0.10369    1.000
    N2226    N        0.28376    0.74716    0.09264    1.000
    N2227    N        0.38670    0.73688    0.09329    1.000
    Si2228   Si       0.37967    0.63092    0.09518    1.000
    Si2229   Si       0.36447    0.70146    0.08448    1.000
    N2230    N        0.45328    0.65028    0.08365    1.000
    N2231    N        0.38877    0.66718    0.07279    1.000
    N2232    N        0.30549    0.56082    0.14949    1.000
    Si2233   Si       0.28905    0.52403    0.13174    1.000
    N2234    N        0.25243    0.60235    0.14949    1.000
    Si2235   Si       0.34654    0.55181    0.15613    1.000
    Si2236   Si       0.29379    0.60014    0.16568    1.000
    N2237    N        0.38354    0.56479    0.13729    1.000
    N2238    N        0.44809    0.59128    0.12765    1.000
    Si2239   Si       0.47776    0.57266    0.15313    1.000
    Si2240   Si       0.38363    0.60112    0.16270    1.000
    N2241    N        0.30565    0.63959    0.15922    1.000
    N2242    N        0.29642    0.71233    0.15824    1.000
    N2243    N        0.35395    0.68946    0.12590    1.000
    Si2244   Si       0.31838    0.66317    0.12332    1.000
    Si2245   Si       0.27426    0.71620    0.12020    1.000
    N2246    N        0.39611    0.63570    0.13657    1.000
    Si2247   Si       0.46111    0.69836    0.15949    1.000
    N2248    N        0.41895    0.70501    0.14807    1.000
    Si2249   Si       0.38679    0.67727    0.15260    1.000
    Si2250   Si       0.40852    0.74243    0.13141    1.000
    N2251    N        0.46739    0.65743    0.14692    1.000
    Si2252   Si       0.44103    0.63246    0.12246    1.000
    N2253    N        0.28461    0.58946    0.20805    1.000
    N2254    N        0.34833    0.59063    0.18437    1.000
    Si2255   Si       0.32675    0.58551    0.22185    1.000
    N2256    N        0.35647    0.52242    0.18508    1.000
    N2257    N        0.27321    0.52852    0.22326    1.000
    Si2258   Si       0.25408    0.56781    0.22930    1.000
    N2259    N        0.45911    0.55248    0.18600    1.000
    N2260    N        0.40822    0.60402    0.19789    1.000
    Si2261   Si       0.43327    0.57303    0.21512    1.000
    Si2262   Si       0.36994    0.52558    0.22606    1.000
    Si2263   Si       0.47198    0.50994    0.18828    1.000
    N2264    N        0.41297    0.53985    0.22789    1.000
    N2265    N        0.24202    0.72773    0.19869    1.000
    Si2266   Si       0.31732    0.74842    0.17535    1.000
    Si2267   Si       0.29120    0.67392    0.18204    1.000
    N2268    N        0.31256    0.66908    0.21919    1.000
    Si2269   Si       0.35051    0.69196    0.21770    1.000
    N2270    N        0.34927    0.73314    0.20017    1.000
    N2271    N        0.25010    0.66446    0.17917    1.000
    N2272    N        0.44684    0.65838    0.22042    1.000
    N2273    N        0.46566    0.71889    0.19827    1.000
    N2274    N        0.38036    0.66870    0.19466    1.000
    Si2275   Si       0.40704    0.64242    0.21782    1.000
    N2276    N        0.25651    0.56433    0.27274    1.000
    N2277    N        0.32509    0.61209    0.25723    1.000
    N2278    N        0.34464    0.55507    0.24568    1.000
    Si2279   Si       0.26844    0.52058    0.26702    1.000
    Si2280   Si       0.34407    0.57961    0.28233    1.000
    N2281    N        0.44265    0.59346    0.25328    1.000
    Si2282   Si       0.41628    0.61195    0.28065    1.000
    N2283    N        0.48104    0.51451    0.24810    1.000
    Si2284   Si       0.48237    0.58911    0.27064    1.000
    Si2285   Si       0.43651    0.50562    0.24069    1.000
    N2286    N        0.25548    0.64156    0.25485    1.000
    N2287    N        0.28579    0.72199    0.26014    1.000
    Si2288   Si       0.24780    0.73168    0.24080    1.000
    Si2289   Si       0.29774    0.64592    0.25251    1.000
    Si2290   Si       0.32022    0.70559    0.27949    1.000
    N2291    N        0.35794    0.70188    0.25992    1.000
    Si2292   Si       0.46271    0.69471    0.23452    1.000
    Si2293   Si       0.42503    0.75065    0.27366    1.000
    N2294    N        0.39592    0.64450    0.25926    1.000
    N2295    N        0.43160    0.70860    0.26241    1.000
    Si2296   Si       0.39610    0.68518    0.27558    1.000
    N2297    N        0.32536    0.56130    0.31621    1.000
    N2298    N        0.26232    0.55421    0.34171    1.000
    Si2299   Si       0.32534    0.51532    0.31571    1.000
    N2300    N        0.29668    0.62085    0.34323    1.000
    Si2301   Si       0.29848    0.57559    0.34456    1.000
    Si2302   Si       0.23561    0.57094    0.31099    1.000
    Si2303   Si       0.38317    0.55610    0.32878    1.000
    Si2304   Si       0.45521    0.52735    0.31055    1.000
    N2305    N        0.47216    0.56650    0.30779    1.000
    N2306    N        0.38680    0.58436    0.29559    1.000
    N2307    N        0.36933    0.51496    0.31599    1.000
    N2308    N        0.42424    0.53539    0.34185    1.000
    Si2309   Si       0.28316    0.65655    0.32401    1.000
    N2310    N        0.33235    0.72648    0.31654    1.000
    N2311    N        0.25817    0.73625    0.33291    1.000
    N2312    N        0.24262    0.67041    0.31615    1.000
    Si2313   Si       0.29758    0.72587    0.34529    1.000
    N2314    N        0.30817    0.66672    0.29085    1.000
    Si2315   Si       0.48711    0.64550    0.31784    1.000
    N2316    N        0.39754    0.69247    0.31744    1.000
    N2317    N        0.44350    0.63330    0.30801    1.000
    N2318    N        0.46660    0.68496    0.33903    1.000
    Si2319   Si       0.37271    0.72461    0.33464    1.000
    Si2320   Si       0.42871    0.66666    0.33283    1.000
    N2321    N        0.30464    0.57722    0.38940    1.000
    Si2322   Si       0.30799    0.62063    0.38537    1.000
    Si2323   Si       0.26384    0.51423    0.35669    1.000
    N2324    N        0.34841    0.62876    0.39609    1.000
    N2325    N        0.45132    0.58663    0.37820    1.000
    N2326    N        0.38085    0.57162    0.37029    1.000
    Si2327   Si       0.41991    0.55768    0.38365    1.000
    Si2328   Si       0.43794    0.62365    0.39547    1.000
    Si2329   Si       0.36946    0.59312    0.40710    1.000
    Si2330   Si       0.48296    0.57883    0.34931    1.000
    N2331    N        0.31088    0.74946    0.38057    1.000
    N2332    N        0.29221    0.68396    0.35698    1.000
    Si2333   Si       0.27184    0.67832    0.39391    1.000
    N2334    N        0.36088    0.69854    0.37264    1.000
    N2335    N        0.27584    0.63805    0.40626    1.000
    Si2336   Si       0.37404    0.65943    0.38660    1.000
    N2337    N        0.43859    0.72365    0.40223    1.000
    N2338    N        0.38694    0.75381    0.36754    1.000
    N2339    N        0.41222    0.64761    0.36757    1.000
    Si2340   Si       0.39701    0.71741    0.39831    1.000
    Si2341   Si       0.30763    0.56335    0.43094    1.000
    N2342    N        0.28935    0.53072    0.45349    1.000
    N2343    N        0.35043    0.56471    0.43644    1.000
    Si2344   Si       0.25797    0.61772    0.44008    1.000
    N2345    N        0.29114    0.59642    0.45541    1.000
    N2346    N        0.40963    0.60682    0.42468    1.000
    N2347    N        0.41824    0.53166    0.41806    1.000
    Si2348   Si       0.42698    0.60728    0.46323    1.000
    Si2349   Si       0.41961    0.52685    0.46272    1.000
    N2350    N        0.25776    0.74262    0.45037    1.000
    N2351    N        0.30007    0.70091    0.42053    1.000
    Si2352   Si       0.29122    0.71648    0.45884    1.000
    Si2353   Si       0.33404    0.71934    0.40101    1.000
    N2354    N        0.39297    0.67857    0.42034    1.000
    Si2355   Si       0.46302    0.69564    0.42415    1.000
    N2356    N        0.46691    0.65254    0.41441    1.000
    N2357    N        0.36629    0.73928    0.42420    1.000
    Si2358   Si       0.30854    0.60080    0.49500    1.000
    N2359    N        0.35115    0.59741    0.49501    1.000
    Si2360   Si       0.26809    0.54068    0.48858    1.000
    N2361    N        0.29480    0.56295    0.51267    1.000
    Si2362   Si       0.37030    0.56281    0.47461    1.000
    N2363    N        0.41475    0.57069    0.47984    1.000
    N2364    N        0.37990    0.51883    0.48251    1.000
    N2365    N        0.45765    0.52213    0.48336    1.000
    Si2366   Si       0.37609    0.62730    0.51317    1.000
    N2367    N        0.46836    0.61120    0.47066    1.000
    Si2368   Si       0.42613    0.56886    0.52098    1.000
    N2369    N        0.29376    0.63403    0.51824    1.000
    N2370    N        0.28301    0.70192    0.49949    1.000
    Si2371   Si       0.26143    0.66378    0.50608    1.000
    N2372    N        0.32230    0.74623    0.47467    1.000
    Si2373   Si       0.30030    0.73866    0.51668    1.000
    N2374    N        0.24510    0.64590    0.47066    1.000
    Si2375   Si       0.47566    0.69565    0.49293    1.000
    Si2376   Si       0.36506    0.74719    0.46989    1.000
    N2377    N        0.40512    0.64035    0.48311    1.000
    N2378    N        0.37927    0.70705    0.48374    1.000
    N2379    N        0.44437    0.69206    0.46267    1.000
    Si2380   Si       0.40376    0.67920    0.46202    1.000
    Si2381   Si       0.31237    0.55266    0.55080    1.000
    N2382    N        0.25100    0.61905    0.57040    1.000
    N2383    N        0.34844    0.53061    0.53961    1.000
    N2384    N        0.31930    0.59144    0.56756    1.000
    N2385    N        0.29015    0.52340    0.57430    1.000
    Si2386   Si       0.29396    0.62735    0.56117    1.000
    Si2387   Si       0.25233    0.51306    0.55433    1.000
    N2388    N        0.41904    0.53310    0.54410    1.000
    N2389    N        0.39961    0.60011    0.53720    1.000
    Si2390   Si       0.38346    0.53382    0.56686    1.000
    N2391    N        0.46570    0.58530    0.53409    1.000
    Si2392   Si       0.47267    0.58683    0.57746    1.000
    Si2393   Si       0.40314    0.61008    0.57874    1.000
    N2394    N        0.27591    0.74075    0.55534    1.000
    N2395    N        0.33841    0.73479    0.53716    1.000
    Si2396   Si       0.35261    0.66676    0.57781    1.000
    Si2397   Si       0.40969    0.75867    0.53751    1.000
    N2398    N        0.47217    0.68897    0.53480    1.000
    Si2399   Si       0.43643    0.68847    0.56031    1.000
    N2400    N        0.42570    0.65041    0.57599    1.000
    N2401    N        0.40752    0.71853    0.54968    1.000
    N2402    N        0.36526    0.66296    0.53743    1.000
    Si2403   Si       0.37075    0.70682    0.52515    1.000
    Si2404   Si       0.34644    0.59284    0.60137    1.000
    N2405    N        0.27721    0.63167    0.63409    1.000
    N2406    N        0.32784    0.58159    0.63830    1.000
    Si2407   Si       0.46590    0.51474    0.60775    1.000
    N2408    N        0.43673    0.59374    0.60168    1.000
    N2409    N        0.43144    0.53282    0.62860    1.000
    N2410    N        0.37870    0.56681    0.59327    1.000
    N2411    N        0.36949    0.62943    0.59720    1.000
    Si2412   Si       0.43160    0.57410    0.63967    1.000
    N2413    N        0.48746    0.54676    0.58722    1.000
    Si2414   Si       0.28191    0.73971    0.59745    1.000
    Si2415   Si       0.29913    0.66777    0.62376    1.000
    N2416    N        0.27846    0.70390    0.62318    1.000
    N2417    N        0.31165    0.65870    0.58415    1.000
    Si2418   Si       0.44863    0.72705    0.63953    1.000
    Si2419   Si       0.42801    0.66053    0.61962    1.000
    N2420    N        0.36846    0.69949    0.60028    1.000
    N2421    N        0.43818    0.70134    0.60450    1.000
    N2422    N        0.46806    0.64897    0.63831    1.000
    Si2423   Si       0.39884    0.72838    0.59370    1.000
    N2424    N        0.41925    0.75437    0.62488    1.000
    N2425    N        0.26288    0.57347    0.66745    1.000
    Si2426   Si       0.29552    0.60074    0.65818    1.000
    Si2427   Si       0.26168    0.53003    0.65956    1.000
    N2428    N        0.30957    0.61865    0.69645    1.000
    N2429    N        0.36135    0.52485    0.65158    1.000
    Si2430   Si       0.35909    0.56751    0.66386    1.000
    N2431    N        0.47232    0.52835    0.67908    1.000
    N2432    N        0.46894    0.58823    0.66354    1.000
    N2433    N        0.39729    0.58899    0.66291    1.000
    Si2434   Si       0.47026    0.62724    0.67643    1.000
    Si2435   Si       0.40621    0.60774    0.70109    1.000
    N2436    N        0.25168    0.75067    0.68195    1.000
    Si2437   Si       0.25301    0.71277    0.65698    1.000
    N2438    N        0.32841    0.67112    0.65580    1.000
    N2439    N        0.26523    0.68239    0.68531    1.000
    Si2440   Si       0.30485    0.66158    0.69110    1.000
    N2441    N        0.44667    0.71648    0.68067    1.000
    N2442    N        0.36822    0.72674    0.66992    1.000
    N2443    N        0.40323    0.67136    0.65350    1.000
    N2444    N        0.43694    0.64015    0.69851    1.000
    Si2445   Si       0.36547    0.69183    0.64448    1.000
    Si2446   Si       0.42178    0.68159    0.69261    1.000
    Si2447   Si       0.33721    0.60244    0.72638    1.000
    N2448    N        0.35207    0.56419    0.70710    1.000
    Si2449   Si       0.35986    0.52193    0.71490    1.000
    N2450    N        0.36219    0.50788    0.75629    1.000
    N2451    N        0.40462    0.51579    0.70642    1.000
    N2452    N        0.42625    0.57566    0.72314    1.000
    N2453    N        0.46670    0.52871    0.74643    1.000
    Si2454   Si       0.44244    0.53870    0.70928    1.000
    N2455    N        0.37445    0.62644    0.72638    1.000
    N2456    N        0.32557    0.67884    0.72372    1.000
    N2457    N        0.30013    0.73357    0.75795    1.000
    N2458    N        0.39965    0.69047    0.72880    1.000
    Si2459   Si       0.36594    0.66700    0.74058    1.000
    N2460    N        0.46171    0.67983    0.75578    1.000
    Si2461   Si       0.47013    0.73504    0.71004    1.000
    N2462    N        0.45035    0.74336    0.74890    1.000
    N2463    N        0.25819    0.59113    0.77760    1.000
    Si2464   Si       0.33530    0.58852    0.80831    1.000
    Si2465   Si       0.28884    0.61965    0.78679    1.000
    Si2466   Si       0.34111    0.51460    0.79400    1.000
    N2467    N        0.25934    0.52285    0.76523    1.000
    N2468    N        0.31870    0.54833    0.81063    1.000
    N2469    N        0.32350    0.60258    0.76716    1.000
    Si2470   Si       0.24207    0.55184    0.79399    1.000
    N2471    N        0.42303    0.55188    0.78716    1.000
    Si2472   Si       0.44410    0.51570    0.77970    1.000
    N2473    N        0.42491    0.62086    0.78163    1.000
    Si2474   Si       0.44002    0.58417    0.76406    1.000
    N2475    N        0.48093    0.60274    0.75856    1.000
    Si2476   Si       0.31327    0.69116    0.76319    1.000
    N2477    N        0.25508    0.71779    0.81001    1.000
    Si2478   Si       0.26090    0.74402    0.77494    1.000
    N2479    N        0.28273    0.66304    0.78023    1.000
    Si2480   Si       0.24580    0.67797    0.79909    1.000
    N2481    N        0.35260    0.67688    0.77976    1.000
    N2482    N        0.48679    0.64675    0.80945    1.000
    Si2483   Si       0.47345    0.75463    0.78562    1.000
    Si2484   Si       0.46340    0.64181    0.77483    1.000
    Si2485   Si       0.42349    0.70634    0.76228    1.000
    N2486    N        0.41933    0.69225    0.80632    1.000
    Si2487   Si       0.36567    0.75239    0.80273    1.000
    Si2488   Si       0.37720    0.68490    0.81504    1.000
    N2489    N        0.39372    0.74047    0.76967    1.000
    Si2490   Si       0.29301    0.54517    0.84543    1.000
    N2491    N        0.25290    0.54625    0.83524    1.000
    N2492    N        0.30332    0.61405    0.82924    1.000
    Si2493   Si       0.30146    0.61211    0.87338    1.000
    N2494    N        0.30698    0.56938    0.87867    1.000
    N2495    N        0.42567    0.55457    0.85412    1.000
    Si2496   Si       0.44436    0.51584    0.85660    1.000
    N2497    N        0.44053    0.62262    0.85043    1.000
    N2498    N        0.37496    0.51779    0.82128    1.000
    Si2499   Si       0.40458    0.62307    0.82119    1.000
    Si2500   Si       0.39803    0.55439    0.82062    1.000
    Si2501   Si       0.43155    0.59094    0.87714    1.000
    N2502    N        0.46259    0.50583    0.81940    1.000
    N2503    N        0.37509    0.58928    0.82059    1.000
    Si2504   Si       0.24995    0.73090    0.85245    1.000
    N2505    N        0.36330    0.71949    0.83293    1.000
    N2506    N        0.24264    0.69332    0.87128    1.000
    Si2507   Si       0.37012    0.71927    0.87636    1.000
    Si2508   Si       0.47370    0.64965    0.85000    1.000
    N2509    N        0.38002    0.65212    0.84160    1.000
    Si2510   Si       0.43722    0.71557    0.84038    1.000
    N2511    N        0.47083    0.69146    0.85831    1.000
    N2512    N        0.44877    0.75350    0.82179    1.000
    N2513    N        0.41338    0.72341    0.87681    1.000
    Si2514   Si       0.32408    0.54654    0.91269    1.000
    N2515    N        0.34843    0.51531    0.89392    1.000
    N2516    N        0.33431    0.62823    0.89439    1.000
    N2517    N        0.35284    0.57394    0.93273    1.000
    N2518    N        0.26573    0.63071    0.88892    1.000
    Si2519   Si       0.33536    0.61501    0.93535    1.000
    N2520    N        0.39984    0.61048    0.89816    1.000
    Si2521   Si       0.45675    0.54115    0.91894    1.000
    N2522    N        0.46652    0.58227    0.90496    1.000
    N2523    N        0.41441    0.54194    0.91672    1.000
    N2524    N        0.47508    0.51625    0.88799    1.000
    Si2525   Si       0.39601    0.57940    0.92937    1.000
    Si2526   Si       0.38956    0.51050    0.90446    1.000
    N2527    N        0.27864    0.74261    0.88144    1.000
    N2528    N        0.34577    0.75114    0.89044    1.000
    Si2529   Si       0.27341    0.71547    0.91407    1.000
    Si2530   Si       0.27109    0.64106    0.93221    1.000
    N2531    N        0.29128    0.67829    0.93221    1.000
    Si2532   Si       0.37423    0.64367    0.88483    1.000
    N2533    N        0.37243    0.68502    0.90629    1.000
    Si2534   Si       0.42080    0.71801    0.92110    1.000
    N2535    N        0.46645    0.71973    0.92090    1.000
    N2536    N        0.40108    0.75417    0.93547    1.000
    Si2537   Si       0.28028    0.57153    0.96509    1.000
    N2538    N        0.29544    0.61143    0.95122    1.000
    N2539    N        0.29246    0.53811    0.94187    1.000
    N2540    N        0.23647    0.57083    0.97113    1.000
    N2541    N        0.41632    0.59029    0.96477    1.000
    N2542    N        0.47054    0.53926    0.96164    1.000
    Si2543   Si       0.39298    0.61852    0.98900    1.000
    Si2544   Si       0.44638    0.56844    0.98689    1.000
    N2545    N        0.23542    0.64641    0.95958    1.000
    Si2546   Si       0.30371    0.70172    0.96796    1.000
    N2547    N        0.34630    0.70153    0.97810    1.000
    N2548    N        0.29676    0.73839    0.94589    1.000
    N2549    N        0.41570    0.68859    0.95408    1.000
    N2550    N        0.36494    0.63724    0.95709    1.000
    Si2551   Si       0.43810    0.67895    0.99136    1.000
    N2552    N        0.47920    0.68170    0.97935    1.000
    Si2553   Si       0.37302    0.67930    0.95129    1.000
    N2554    N        0.44875    0.74952    0.98247    1.000
    Si2555   Si       0.47930    0.72342    0.96292    1.000
    Si2556   Si       0.31830    0.79538    0.03041    1.000
    N2557    N        0.34192    0.82560    0.01003    1.000
    Si2558   Si       0.25004    0.81262    0.00761    1.000
    N2559    N        0.27674    0.80095    0.04577    1.000
    N2560    N        0.24298    0.85513    0.00538    1.000
    N2561    N        0.32548    0.76240    0.00210    1.000
    N2562    N        0.43076    0.85686    0.02119    1.000
    N2563    N        0.46423    0.76581    0.05072    1.000
    Si2564   Si       0.26981    0.88347    0.02062    1.000
    N2565    N        0.25868    0.97850    0.02517    1.000
    N2566    N        0.34883    0.89344    0.03661    1.000
    N2567    N        0.24821    0.91726    0.03760    1.000
    N2568    N        0.36642    0.97969    0.03716    1.000
    Si2569   Si       0.38023    0.95531    0.00376    1.000
    N2570    N        0.46854    0.92434    0.03091    1.000
    N2571    N        0.40428    0.92205    0.02175    1.000
    Si2572   Si       0.43879    0.90002    0.01053    1.000
    Si2573   Si       0.27233    0.83370    0.07648    1.000
    N2574    N        0.33976    0.78000    0.06554    1.000
    Si2575   Si       0.31619    0.77591    0.10122    1.000
    N2576    N        0.29882    0.81611    0.10533    1.000
    Si2577   Si       0.25505    0.76436    0.06326    1.000
    N2578    N        0.28890    0.86796    0.05645    1.000
    N2579    N        0.23956    0.85001    0.10433    1.000
    N2580    N        0.40763    0.80061    0.06490    1.000
    N2581    N        0.45201    0.83535    0.08841    1.000
    Si2582   Si       0.44871    0.79244    0.08384    1.000
    N2583    N        0.39659    0.87209    0.08252    1.000
    Si2584   Si       0.38022    0.76806    0.06236    1.000
    Si2585   Si       0.42030    0.84185    0.06013    1.000
    Si2586   Si       0.47177    0.86911    0.10842    1.000
    N2587    N        0.33555    0.88193    0.10547    1.000
    N2588    N        0.30864    0.93762    0.07233    1.000
    Si2589   Si       0.31237    0.96706    0.10509    1.000
    N2590    N        0.28690    0.99442    0.08369    1.000
    Si2591   Si       0.32037    0.89723    0.06907    1.000
    Si2592   Si       0.27019    0.95865    0.06205    1.000
    N2593    N        0.24712    0.93721    0.09622    1.000
    Si2594   Si       0.38542    0.90534    0.05610    1.000
    Si2595   Si       0.38039    0.97851    0.07868    1.000
    N2596    N        0.39204    0.93755    0.08503    1.000
    Si2597   Si       0.47779    0.92199    0.07222    1.000
    N2598    N        0.45357    0.91169    0.10928    1.000
    Si2599   Si       0.32221    0.84487    0.12624    1.000
    N2600    N        0.33276    0.76986    0.14027    1.000
    N2601    N        0.29564    0.86282    0.15320    1.000
    Si2602   Si       0.25461    0.86841    0.14291    1.000
    Si2603   Si       0.36215    0.79760    0.15870    1.000
    N2604    N        0.36247    0.83371    0.13748    1.000
    N2605    N        0.39482    0.76865    0.16482    1.000
    Si2606   Si       0.37673    0.87062    0.11921    1.000
    N2607    N        0.44229    0.76592    0.11735    1.000
    Si2608   Si       0.48225    0.76593    0.13166    1.000
    N2609    N        0.48183    0.78661    0.17161    1.000
    N2610    N        0.24720    0.90846    0.15688    1.000
    Si2611   Si       0.25558    0.94686    0.13719    1.000
    N2612    N        0.29726    0.95567    0.14291    1.000
    N2613    N        0.35278    0.98159    0.11440    1.000
    N2614    N        0.48144    0.96410    0.16842    1.000
    N2615    N        0.41007    0.96282    0.15049    1.000
    Si2616   Si       0.48031    0.93814    0.13297    1.000
    Si2617   Si       0.41214    0.92663    0.12171    1.000
    N2618    N        0.39701    0.89626    0.14563    1.000
    Si2619   Si       0.37563    0.99056    0.15053    1.000
    N2620    N        0.35144    0.79986    0.20020    1.000
    N2621    N        0.29108    0.77358    0.20014    1.000
    Si2622   Si       0.24781    0.77194    0.19265    1.000
    Si2623   Si       0.31830    0.79801    0.22637    1.000
    N2624    N        0.23477    0.85169    0.17825    1.000
    Si2625   Si       0.47437    0.82784    0.18458    1.000
    N2626    N        0.39889    0.87222    0.22426    1.000
    Si2627   Si       0.37822    0.76466    0.20623    1.000
    N2628    N        0.45633    0.82257    0.22654    1.000
    N2629    N        0.44267    0.85301    0.17064    1.000
    N2630    N        0.28179    0.98569    0.20147    1.000
    N2631    N        0.32743    0.92966    0.20116    1.000
    N2632    N        0.34866    0.99216    0.18578    1.000
    Si2633   Si       0.31389    0.96441    0.18200    1.000
    Si2634   Si       0.24237    0.89150    0.19620    1.000
    N2635    N        0.27437    0.89403    0.22689    1.000
    Si2636   Si       0.48725    0.00247    0.19081    1.000
    N2637    N        0.44366    0.00224    0.20106    1.000
    Si2638   Si       0.41624    0.88516    0.18436    1.000
    N2639    N        0.43492    0.92111    0.19926    1.000
    Si2640   Si       0.43719    0.96226    0.18322    1.000
    Si2641   Si       0.27096    0.86316    0.25561    1.000
    N2642    N        0.29541    0.82970    0.24620    1.000
    N2643    N        0.33424    0.78852    0.26690    1.000
    Si2644   Si       0.30556    0.81435    0.28678    1.000
    N2645    N        0.45711    0.78057    0.27989    1.000
    N2646    N        0.40146    0.82914    0.27573    1.000
    Si2647   Si       0.37822    0.79030    0.27205    1.000
    Si2648   Si       0.42817    0.84669    0.24569    1.000
    N2649    N        0.40082    0.76924    0.24080    1.000
    Si2650   Si       0.48328    0.79735    0.25087    1.000
    N2651    N        0.25551    0.99524    0.26908    1.000
    N2652    N        0.33451    0.89101    0.26199    1.000
    Si2653   Si       0.28969    0.99025    0.24645    1.000
    N2654    N        0.30673    0.95365    0.26307    1.000
    Si2655   Si       0.30914    0.91685    0.23722    1.000
    N2656    N        0.44974    0.87989    0.26759    1.000
    N2657    N        0.46736    0.94520    0.25451    1.000
    Si2658   Si       0.37812    0.89117    0.25983    1.000
    N2659    N        0.38862    0.00484    0.24297    1.000
    Si2660   Si       0.39438    0.97261    0.27342    1.000
    N2661    N        0.39818    0.93043    0.25733    1.000
    Si2662   Si       0.43688    0.91738    0.24470    1.000
    N2663    N        0.32713    0.84014    0.31489    1.000
    Si2664   Si       0.25354    0.77825    0.33194    1.000
    N2665    N        0.26335    0.79830    0.29486    1.000
    Si2666   Si       0.47778    0.77186    0.31812    1.000
    Si2667   Si       0.40619    0.85046    0.31394    1.000
    N2668    N        0.38932    0.81978    0.33835    1.000
    N2669    N        0.44160    0.86387    0.33596    1.000
    Si2670   Si       0.40745    0.78054    0.34103    1.000
    N2671    N        0.39373    0.76081    0.30419    1.000
    Si2672   Si       0.31865    0.88282    0.30181    1.000
    N2673    N        0.27546    0.87937    0.29550    1.000
    Si2674   Si       0.32127    0.95764    0.30213    1.000
    N2675    N        0.32721    0.91958    0.32234    1.000
    N2676    N        0.29884    0.98574    0.32841    1.000
    N2677    N        0.24036    0.93193    0.34129    1.000
    N2678    N        0.36200    0.97397    0.30319    1.000
    Si2679   Si       0.39254    0.97689    0.33366    1.000
    N2680    N        0.42375    0.98103    0.30485    1.000
    N2681    N        0.38338    0.88561    0.30575    1.000
    N2682    N        0.46645    0.92613    0.31840    1.000
    Si2683   Si       0.36905    0.91026    0.33827    1.000
    Si2684   Si       0.46533    0.88267    0.30697    1.000
    N2685    N        0.34471    0.80783    0.38298    1.000
    Si2686   Si       0.30426    0.79267    0.38970    1.000
    N2687    N        0.27217    0.80366    0.36443    1.000
    Si2688   Si       0.34984    0.83615    0.35144    1.000
    N2689    N        0.36018    0.87642    0.36676    1.000
    Si2690   Si       0.44819    0.86882    0.37974    1.000
    Si2691   Si       0.45128    0.76415    0.39427    1.000
    N2692    N        0.44981    0.77116    0.35079    1.000
    N2693    N        0.47414    0.84166    0.40173    1.000
    N2694    N        0.41391    0.86066    0.40559    1.000
    Si2695   Si       0.37303    0.87543    0.40745    1.000
    N2696    N        0.32836    0.99090    0.40023    1.000
    N2697    N        0.24238    0.89902    0.40695    1.000
    Si2698   Si       0.44334    0.93731    0.35278    1.000
    N2699    N        0.39875    0.93690    0.35068    1.000
    N2700    N        0.46288    0.90939    0.38211    1.000
    N2701    N        0.45244    0.97521    0.36902    1.000
    N2702    N        0.29694    0.80098    0.43254    1.000
    N2703    N        0.34219    0.86068    0.43430    1.000
    Si2704   Si       0.33082    0.82264    0.45028    1.000
    N2705    N        0.27578    0.87439    0.46592    1.000
    N2706    N        0.36660    0.79871    0.44798    1.000
    Si2707   Si       0.43708    0.82782    0.42354    1.000
    N2708    N        0.48470    0.78059    0.41932    1.000
    N2709    N        0.41798    0.79222    0.40693    1.000
    Si2710   Si       0.37569    0.78070    0.40617    1.000
    N2711    N        0.26493    0.96274    0.40682    1.000
    Si2712   Si       0.34035    0.90187    0.45116    1.000
    N2713    N        0.30792    0.92425    0.43588    1.000
    Si2714   Si       0.30246    0.96716    0.42553    1.000
    Si2715   Si       0.26678    0.91004    0.44265    1.000
    Si2716   Si       0.24867    0.97886    0.45210    1.000
    N2717    N        0.29070    0.98738    0.46134    1.000
    Si2718   Si       0.47825    0.92934    0.41904    1.000
    N2719    N        0.44286    0.92620    0.44358    1.000
    N2720    N        0.37528    0.91350    0.42769    1.000
    Si2721   Si       0.40357    0.94365    0.44201    1.000
    N2722    N        0.39458    0.97995    0.42215    1.000
    N2723    N        0.32190    0.82864    0.49362    1.000
    N2724    N        0.27882    0.77889    0.50682    1.000
    Si2725   Si       0.24702    0.84941    0.48523    1.000
    N2726    N        0.24002    0.81171    0.46443    1.000
    Si2727   Si       0.29344    0.81596    0.52346    1.000
    Si2728   Si       0.27249    0.78377    0.46354    1.000
    Si2729   Si       0.39660    0.80684    0.47888    1.000
    Si2730   Si       0.43330    0.85318    0.50073    1.000
    N2731    N        0.38935    0.83439    0.51105    1.000
    N2732    N        0.39216    0.76778    0.49942    1.000
    N2733    N        0.47470    0.87259    0.48502    1.000
    N2734    N        0.43160    0.82843    0.46593    1.000
    N2735    N        0.33760    0.99378    0.51734    1.000
    N2736    N        0.34531    0.90449    0.49322    1.000
    N2737    N        0.24414    0.93683    0.46491    1.000
    Si2738   Si       0.37548    0.99545    0.49358    1.000
    N2739    N        0.39056    0.95582    0.48403    1.000
    Si2740   Si       0.38411    0.92055    0.50640    1.000
    Si2741   Si       0.45531    0.91243    0.48169    1.000
    N2742    N        0.41980    0.89824    0.50243    1.000
    N2743    N        0.48342    0.94246    0.49426    1.000
    N2744    N        0.32615    0.80568    0.55106    1.000
    N2745    N        0.33997    0.86974    0.55180    1.000
    Si2746   Si       0.33893    0.76614    0.56560    1.000
    Si2747   Si       0.24803    0.76560    0.53297    1.000
    Si2748   Si       0.35039    0.83665    0.52790    1.000
    N2749    N        0.25248    0.83653    0.52706    1.000
    N2750    N        0.45426    0.84684    0.53931    1.000
    Si2751   Si       0.45428    0.81020    0.56595    1.000
    N2752    N        0.44999    0.77444    0.54267    1.000
    N2753    N        0.38152    0.76858    0.57552    1.000
    Si2754   Si       0.44971    0.88012    0.56896    1.000
    Si2755   Si       0.33304    0.90946    0.53625    1.000
    N2756    N        0.29907    0.93331    0.54648    1.000
    Si2757   Si       0.30955    0.97399    0.54316    1.000
    N2758    N        0.27375    0.99925    0.53604    1.000
    Si2759   Si       0.27514    0.92280    0.58055    1.000
    Si2760   Si       0.47844    0.94488    0.53825    1.000
    Si2761   Si       0.43365    0.00531    0.54345    1.000
    N2762    N        0.36887    0.93099    0.54592    1.000
    N2763    N        0.40977    0.89164    0.58146    1.000
    N2764    N        0.47817    0.90389    0.54729    1.000
    N2765    N        0.44255    0.96494    0.55379    1.000
    Si2766   Si       0.32845    0.79557    0.63099    1.000
    N2767    N        0.33515    0.83779    0.62035    1.000
    Si2768   Si       0.32552    0.87096    0.59395    1.000
    N2769    N        0.31638    0.76328    0.60364    1.000
    N2770    N        0.24892    0.76080    0.61621    1.000
    N2771    N        0.28439    0.87845    0.58602    1.000
    Si2772   Si       0.24132    0.87446    0.59809    1.000
    N2773    N        0.42188    0.81829    0.59429    1.000
    Si2774   Si       0.39666    0.78724    0.61144    1.000
    N2775    N        0.46398    0.86841    0.60691    1.000
    Si2776   Si       0.43785    0.84114    0.62691    1.000
    N2777    N        0.28105    0.94190    0.61875    1.000
    N2778    N        0.34640    0.90547    0.60921    1.000
    Si2779   Si       0.30471    0.97893    0.62493    1.000
    N2780    N        0.31249    0.99215    0.58224    1.000
    N2781    N        0.24581    0.88164    0.64046    1.000
    N2782    N        0.40153    0.95254    0.61124    1.000
    Si2783   Si       0.43837    0.97204    0.59841    1.000
    N2784    N        0.46778    0.94013    0.61152    1.000
    Si2785   Si       0.47847    0.90334    0.63080    1.000
    N2786    N        0.46716    0.00141    0.61842    1.000
    Si2787   Si       0.38006    0.92125    0.58747    1.000
    N2788    N        0.29802    0.79984    0.66141    1.000
    Si2789   Si       0.26028    0.78304    0.65334    1.000
    N2790    N        0.34594    0.84602    0.69055    1.000
    Si2791   Si       0.30755    0.82371    0.69779    1.000
    N2792    N        0.27628    0.85588    0.69506    1.000
    Si2793   Si       0.23798    0.85350    0.67105    1.000
    Si2794   Si       0.36649    0.83858    0.65113    1.000
    N2795    N        0.45628    0.80912    0.64899    1.000
    N2796    N        0.40680    0.85569    0.65134    1.000
    Si2797   Si       0.37669    0.76614    0.68246    1.000
    Si2798   Si       0.45153    0.80013    0.69142    1.000
    N2799    N        0.37014    0.79404    0.64592    1.000
    N2800    N        0.48411    0.77363    0.69777    1.000
    N2801    N        0.34296    0.96451    0.64461    1.000
    Si2802   Si       0.26858    0.91853    0.65337    1.000
    N2803    N        0.30546    0.91235    0.67389    1.000
    N2804    N        0.28238    0.00038    0.65568    1.000
    N2805    N        0.24154    0.93350    0.68506    1.000
    Si2806   Si       0.34052    0.91946    0.64886    1.000
    Si2807   Si       0.41229    0.89103    0.67591    1.000
    N2808    N        0.42075    0.97054    0.67773    1.000
    N2809    N        0.45311    0.90494    0.66855    1.000
    Si2810   Si       0.45646    0.94562    0.68552    1.000
    N2811    N        0.37888    0.91816    0.66736    1.000
    Si2812   Si       0.38884    0.95827    0.65202    1.000
    N2813    N        0.29898    0.80790    0.73617    1.000
    Si2814   Si       0.32098    0.77108    0.74853    1.000
    N2815    N        0.34564    0.77178    0.71312    1.000
    Si2816   Si       0.36629    0.86652    0.72251    1.000
    N2817    N        0.45725    0.82692    0.72768    1.000
    Si2818   Si       0.41697    0.77051    0.74607    1.000
    N2819    N        0.41338    0.78082    0.70482    1.000
    N2820    N        0.37676    0.84392    0.75644    1.000
    Si2821   Si       0.42368    0.84341    0.75395    1.000
    N2822    N        0.33649    0.89546    0.73351    1.000
    Si2823   Si       0.29901    0.89158    0.71216    1.000
    Si2824   Si       0.25598    0.94545    0.72442    1.000
    N2825    N        0.26983    0.90815    0.74229    1.000
    N2826    N        0.28838    0.97687    0.72182    1.000
    N2827    N        0.40879    0.88296    0.71818    1.000
    Si2828   Si       0.42403    0.91055    0.74921    1.000
    Si2829   Si       0.47885    0.95434    0.75656    1.000
    N2830    N        0.38697    0.99328    0.73657    1.000
    Si2831   Si       0.42282    0.98361    0.71819    1.000
    N2832    N        0.44407    0.94524    0.72964    1.000
    N2833    N        0.26247    0.78468    0.78823    1.000
    N2834    N        0.34479    0.78265    0.78088    1.000
    N2835    N        0.29407    0.85541    0.78995    1.000
    Si2836   Si       0.27410    0.82181    0.76830    1.000
    N2837    N        0.23801    0.84623    0.76756    1.000
    Si2838   Si       0.37379    0.81656    0.78926    1.000
    N2839    N        0.41761    0.80496    0.77809    1.000
    N2840    N        0.44201    0.87839    0.77113    1.000
    Si2841   Si       0.26134    0.88089    0.77808    1.000
    Si2842   Si       0.24588    0.98293    0.78431    1.000
    N2843    N        0.32852    0.90857    0.80560    1.000
    N2844    N        0.27789    0.95901    0.79741    1.000
    Si2845   Si       0.34959    0.91691    0.76885    1.000
    N2846    N        0.33666    0.95775    0.76713    1.000
    Si2847   Si       0.30370    0.98348    0.76170    1.000
    N2848    N        0.24275    0.89536    0.81362    1.000
    N2849    N        0.39289    0.99344    0.80371    1.000
    N2850    N        0.48758    0.92772    0.79118    1.000
    Si2851   Si       0.37630    0.97090    0.77369    1.000
    N2852    N        0.39249    0.92800    0.77245    1.000
    N2853    N        0.46562    0.98864    0.78410    1.000
    Si2854   Si       0.47972    0.88482    0.79198    1.000
    Si2855   Si       0.48913    0.96560    0.81566    1.000
    N2856    N        0.25205    0.82829    0.84278    1.000
    N2857    N        0.31015    0.86429    0.86041    1.000
    N2858    N        0.31812    0.79804    0.85270    1.000
    Si2859   Si       0.28816    0.82791    0.86449    1.000
    N2860    N        0.36086    0.84312    0.82131    1.000
    Si2861   Si       0.35954    0.81060    0.85193    1.000
    Si2862   Si       0.32763    0.86787    0.81998    1.000
    Si2863   Si       0.42631    0.79213    0.81997    1.000
    N2864    N        0.44104    0.81528    0.85324    1.000
    N2865    N        0.38424    0.78488    0.82818    1.000
    Si2866   Si       0.48012    0.83297    0.85247    1.000
    N2867    N        0.47816    0.87180    0.83228    1.000
    N2868    N        0.34029    0.96618    0.84087    1.000
    Si2869   Si       0.24857    0.91909    0.84863    1.000
    N2870    N        0.28806    0.92850    0.86129    1.000
    Si2871   Si       0.30860    0.94387    0.82432    1.000
    N2872    N        0.23525    0.88659    0.87674    1.000
    N2873    N        0.40161    0.96755    0.86901    1.000
    Si2874   Si       0.37375    0.99106    0.84416    1.000
    Si2875   Si       0.44137    0.98681    0.87080    1.000
    N2876    N        0.47734    0.96333    0.85665    1.000
    N2877    N        0.28562    0.80726    0.90509    1.000
    Si2878   Si       0.30824    0.77235    0.88714    1.000
    Si2879   Si       0.24764    0.88023    0.91690    1.000
    Si2880   Si       0.36998    0.77656    0.91734    1.000
    Si2881   Si       0.42237    0.82359    0.89494    1.000
    N2882    N        0.38046    0.80994    0.89110    1.000
    N2883    N        0.41553    0.86108    0.91697    1.000
    N2884    N        0.44822    0.80081    0.92137    1.000
    Si2885   Si       0.48710    0.82246    0.92357    1.000
    N2886    N        0.29009    0.89176    0.92248    1.000
    N2887    N        0.35095    0.96752    0.91611    1.000
    N2888    N        0.35455    0.90525    0.89177    1.000
    Si2889   Si       0.31183    0.89868    0.88434    1.000
    N2890    N        0.46942    0.91393    0.90303    1.000
    N2891    N        0.45659    0.98759    0.91181    1.000
    Si2892   Si       0.43713    0.89653    0.92690    1.000
    Si2893   Si       0.37650    0.88450    0.92628    1.000
    Si2894   Si       0.37849    0.94218    0.89497    1.000
    N2895    N        0.40187    0.92153    0.92518    1.000
    Si2896   Si       0.48123    0.95386    0.89847    1.000
    Si2897   Si       0.30975    0.77600    0.96438    1.000
    N2898    N        0.27055    0.79615    0.97317    1.000
    N2899    N        0.34426    0.79521    0.94693    1.000
    N2900    N        0.36064    0.86712    0.96012    1.000
    Si2901   Si       0.25365    0.80849    0.93493    1.000
    Si2902   Si       0.36631    0.82523    0.97399    1.000
    Si2903   Si       0.42936    0.77882    0.95543    1.000
    N2904    N        0.40849    0.81351    0.97361    1.000
    Si2905   Si       0.43917    0.84484    0.97811    1.000
    N2906    N        0.48025    0.83154    0.96600    1.000
    Si2907   Si       0.27307    0.99354    0.94441    1.000
    Si2908   Si       0.33453    0.96137    0.95647    1.000
    N2909    N        0.35161    0.99437    0.97677    1.000
    N2910    N        0.29310    0.95651    0.95500    1.000
    Si2911   Si       0.28177    0.91429    0.95725    1.000
    N2912    N        0.35194    0.93109    0.98049    1.000
    N2913    N        0.29817    0.89535    0.99224    1.000
    Si2914   Si       0.34000    0.88919    0.99386    1.000
    Si2915   Si       0.45033    0.99959    0.99816    1.000
    N2916    N        0.41071    0.98146    0.99018    1.000
    N2917    N        0.48331    0.97720    0.98118    1.000
    N2918    N        0.44327    0.88832    0.96826    1.000
    Si2919   Si       0.53906    0.07965    0.03378    1.000
    N2920    N        0.52448    0.04101    0.01737    1.000
    N2921    N        0.55708    0.11034    0.00580    1.000
    Si2922   Si       0.51160    0.00840    0.04536    1.000
    N2923    N        0.61097    0.07654    0.00374    1.000
    N2924    N        0.50419    0.09825    0.04984    1.000
    Si2925   Si       0.62351    0.11310    0.02274    1.000
    N2926    N        0.66660    0.11069    0.01938    1.000
    N2927    N        0.65396    0.02481    0.02493    1.000
    Si2928   Si       0.69453    0.11980    0.05195    1.000
    N2929    N        0.54472    0.18632    0.01459    1.000
    Si2930   Si       0.56352    0.21823    0.03912    1.000
    N2931    N        0.60452    0.21858    0.02498    1.000
    N2932    N        0.60928    0.15167    0.00040    1.000
    Si2933   Si       0.50304    0.19108    0.00290    1.000
    Si2934   Si       0.62751    0.25383    0.04032    1.000
    N2935    N        0.65832    0.18156    0.04660    1.000
    Si2936   Si       0.68499    0.21452    0.05065    1.000
    N2937    N        0.72455    0.14341    0.02977    1.000
    N2938    N        0.66824    0.24892    0.02482    1.000
    Si2939   Si       0.63216    0.18803    0.01169    1.000
    N2940    N        0.72149    0.21387    0.02618    1.000
    Si2941   Si       0.73684    0.17808    0.00843    1.000
    Si2942   Si       0.58370    0.11073    0.08673    1.000
    Si2943   Si       0.56460    0.03848    0.09220    1.000
    N2944    N        0.56372    0.07483    0.06978    1.000
    Si2945   Si       0.50834    0.11187    0.09173    1.000
    N2946    N        0.60200    0.02181    0.08115    1.000
    N2947    N        0.52751    0.01428    0.08632    1.000
    N2948    N        0.61668    0.12399    0.06344    1.000
    Si2949   Si       0.63257    0.01542    0.11225    1.000
    N2950    N        0.72489    0.08649    0.05583    1.000
    N2951    N        0.54820    0.13498    0.09295    1.000
    N2952    N        0.57114    0.20466    0.08030    1.000
    Si2953   Si       0.60683    0.21867    0.10357    1.000
    Si2954   Si       0.54604    0.17784    0.10318    1.000
    Si2955   Si       0.73897    0.24310    0.10287    1.000
    N2956    N        0.67767    0.13321    0.08877    1.000
    Si2957   Si       0.64383    0.15613    0.07937    1.000
    N2958    N        0.70281    0.22306    0.09004    1.000
    N2959    N        0.62885    0.25018    0.08284    1.000
    N2960    N        0.62548    0.17870    0.10913    1.000
    N2961    N        0.57086    0.03896    0.13566    1.000
    N2962    N        0.60221    0.11093    0.12514    1.000
    Si2963   Si       0.49791    0.07570    0.16147    1.000
    N2964    N        0.50976    0.07836    0.11928    1.000
    N2965    N        0.49548    0.03174    0.16021    1.000
    Si2966   Si       0.50071    0.03453    0.11624    1.000
    N2967    N        0.65134    0.05143    0.12904    1.000
    Si2968   Si       0.62957    0.08526    0.14533    1.000
    N2969    N        0.66640    0.10623    0.15849    1.000
    Si2970   Si       0.68944    0.06473    0.14709    1.000
    N2971    N        0.71846    0.03372    0.15866    1.000
    Si2972   Si       0.69566    0.12711    0.12931    1.000
    N2973    N        0.71504    0.08852    0.12389    1.000
    Si2974   Si       0.56503    0.21341    0.16323    1.000
    N2975    N        0.59646    0.23511    0.14260    1.000
    Si2976   Si       0.49540    0.22793    0.14420    1.000
    Si2977   Si       0.60488    0.15496    0.13808    1.000
    N2978    N        0.56785    0.17596    0.14267    1.000
    N2979    N        0.53318    0.24369    0.16001    1.000
    N2980    N        0.50980    0.20030    0.11454    1.000
    Si2981   Si       0.61967    0.25945    0.16876    1.000
    N2982    N        0.72551    0.15369    0.14596    1.000
    Si2983   Si       0.73776    0.24837    0.16509    1.000
    N2984    N        0.53701    0.08259    0.18195    1.000
    N2985    N        0.57325    0.02020    0.19675    1.000
    Si2986   Si       0.53137    0.08282    0.22393    1.000
    N2987    N        0.49052    0.06942    0.22386    1.000
    N2988    N        0.61117    0.07200    0.18091    1.000
    Si2989   Si       0.57158    0.06014    0.17293    1.000
    N2990    N        0.66881    0.03664    0.20314    1.000
    Si2991   Si       0.63739    0.06560    0.21292    1.000
    Si2992   Si       0.71035    0.02421    0.20070    1.000
    N2993    N        0.65057    0.10312    0.22824    1.000
    Si2994   Si       0.65543    0.12958    0.19438    1.000
    N2995    N        0.57391    0.20197    0.20516    1.000
    N2996    N        0.50483    0.18269    0.22989    1.000
    Si2997   Si       0.61499    0.18984    0.20201    1.000
    N2998    N        0.68650    0.15958    0.20374    1.000
    N2999    N        0.70837    0.21956    0.17674    1.000
    Si3000   Si       0.71805    0.17937    0.17939    1.000
    Si3001   Si       0.67923    0.23768    0.20533    1.000
    N3002    N        0.63815    0.22714    0.19488    1.000
    N3003    N        0.62333    0.15522    0.17690    1.000
    N3004    N        0.55507    0.05845    0.25241    1.000
    Si3005   Si       0.57619    0.02360    0.23981    1.000
    Si3006   Si       0.49160    0.03828    0.25519    1.000
    N3007    N        0.53274    0.12219    0.23952    1.000
    N3008    N        0.62111    0.03213    0.24027    1.000
    Si3009   Si       0.65194    0.11487    0.27131    1.000
    Si3010   Si       0.64225    0.03292    0.28005    1.000
    N3011    N        0.72815    0.04048    0.23499    1.000
    Si3012   Si       0.49739    0.14327    0.24846    1.000
    N3013    N        0.56410    0.17614    0.27201    1.000
    N3014    N        0.54466    0.23892    0.25125    1.000
    Si3015   Si       0.60577    0.17340    0.27554    1.000
    Si3016   Si       0.54546    0.19638    0.23741    1.000
    N3017    N        0.68208    0.14625    0.27244    1.000
    N3018    N        0.68312    0.21755    0.24420    1.000
    N3019    N        0.73879    0.25259    0.26401    1.000
    Si3020   Si       0.67309    0.17539    0.24190    1.000
    N3021    N        0.62954    0.17474    0.23973    1.000
    Si3022   Si       0.69644    0.24387    0.27583    1.000
    N3023    N        0.56018    0.03815    0.31988    1.000
    N3024    N        0.55738    0.10766    0.30718    1.000
    Si3025   Si       0.59641    0.11603    0.32708    1.000
    Si3026   Si       0.59664    0.03704    0.34100    1.000
    Si3027   Si       0.54618    0.06864    0.29329    1.000
    N3028    N        0.61364    0.07725    0.34568    1.000
    N3029    N        0.50393    0.05927    0.29104    1.000
    N3030    N        0.62767    0.01754    0.31825    1.000
    Si3031   Si       0.65513    0.08331    0.33395    1.000
    N3032    N        0.67056    0.12393    0.33778    1.000
    N3033    N        0.72343    0.09792    0.29314    1.000
    Si3034   Si       0.70258    0.13216    0.30783    1.000
    N3035    N        0.65419    0.07377    0.29082    1.000
    N3036    N        0.50927    0.22033    0.32067    1.000
    Si3037   Si       0.53771    0.24317    0.29504    1.000
    N3038    N        0.54417    0.16503    0.34070    1.000
    Si3039   Si       0.54033    0.14830    0.30062    1.000
    N3040    N        0.57316    0.25438    0.31688    1.000
    Si3041   Si       0.60510    0.24635    0.28924    1.000
    N3042    N        0.49773    0.14618    0.29132    1.000
    Si3043   Si       0.64920    0.22002    0.32421    1.000
    N3044    N        0.72693    0.16018    0.32944    1.000
    Si3045   Si       0.72154    0.20203    0.33627    1.000
    N3046    N        0.69162    0.22491    0.31430    1.000
    N3047    N        0.62115    0.20855    0.29577    1.000
    N3048    N        0.61701    0.13354    0.29403    1.000
    Si3049   Si       0.60478    0.09597    0.38740    1.000
    N3050    N        0.50468    0.08375    0.36322    1.000
    Si3051   Si       0.53402    0.09638    0.39549    1.000
    N3052    N        0.58796    0.01326    0.37709    1.000
    N3053    N        0.57032    0.07347    0.40140    1.000
    Si3054   Si       0.71031    0.03552    0.36805    1.000
    N3055    N        0.67543    0.06138    0.36457    1.000
    N3056    N        0.73729    0.13215    0.39591    1.000
    N3057    N        0.60525    0.13628    0.36582    1.000
    Si3058   Si       0.57027    0.16105    0.37618    1.000
    N3059    N        0.50532    0.21325    0.39145    1.000
    N3060    N        0.57869    0.19971    0.39123    1.000
    Si3061   Si       0.51111    0.19096    0.35350    1.000
    N3062    N        0.54704    0.13664    0.40502    1.000
    N3063    N        0.66711    0.14977    0.40458    1.000
    N3064    N        0.64388    0.19579    0.36030    1.000
    Si3065   Si       0.73147    0.24092    0.39871    1.000
    Si3066   Si       0.61874    0.21585    0.39008    1.000
    N3067    N        0.71769    0.20212    0.38103    1.000
    Si3068   Si       0.71113    0.16564    0.40553    1.000
    Si3069   Si       0.64775    0.15145    0.36324    1.000
    N3070    N        0.53068    0.02666    0.43267    1.000
    N3071    N        0.50493    0.08871    0.42621    1.000
    Si3072   Si       0.57070    0.02874    0.41591    1.000
    Si3073   Si       0.74122    0.01816    0.42822    1.000
    Si3074   Si       0.67688    0.06592    0.41031    1.000
    N3075    N        0.69431    0.10147    0.44238    1.000
    N3076    N        0.66109    0.02829    0.42718    1.000
    Si3077   Si       0.65507    0.12091    0.43544    1.000
    Si3078   Si       0.63585    0.01811    0.46056    1.000
    N3079    N        0.72002    0.05325    0.41078    1.000
    N3080    N        0.63949    0.08807    0.41191    1.000
    Si3081   Si       0.54478    0.15237    0.44537    1.000
    N3082    N        0.54041    0.19708    0.44552    1.000
    N3083    N        0.52129    0.25563    0.46403    1.000
    Si3084   Si       0.54551    0.22046    0.40796    1.000
    N3085    N        0.64305    0.22659    0.42411    1.000
    N3086    N        0.71157    0.17008    0.45059    1.000
    Si3087   Si       0.71584    0.20921    0.46779    1.000
    N3088    N        0.55666    0.06920    0.48576    1.000
    Si3089   Si       0.58970    0.05208    0.50914    1.000
    Si3090   Si       0.56272    0.10925    0.50461    1.000
    Si3091   Si       0.52446    0.04364    0.47344    1.000
    N3092    N        0.49178    0.06905    0.48835    1.000
    N3093    N        0.62670    0.05383    0.48339    1.000
    Si3094   Si       0.63968    0.09005    0.50454    1.000
    N3095    N        0.63906    0.12180    0.47549    1.000
    Si3096   Si       0.71550    0.13064    0.47018    1.000
    N3097    N        0.57386    0.13944    0.47545    1.000
    Si3098   Si       0.51514    0.15927    0.50889    1.000
    N3099    N        0.52667    0.19929    0.51030    1.000
    Si3100   Si       0.51268    0.21484    0.47142    1.000
    N3101    N        0.50895    0.13998    0.46864    1.000
    Si3102   Si       0.61212    0.15303    0.49160    1.000
    N3103    N        0.70586    0.13218    0.51176    1.000
    Si3104   Si       0.64386    0.22877    0.46735    1.000
    N3105    N        0.68444    0.23531    0.47990    1.000
    N3106    N        0.62458    0.19582    0.48840    1.000
    N3107    N        0.53968    0.02795    0.56385    1.000
    Si3108   Si       0.59538    0.09283    0.57238    1.000
    N3109    N        0.60419    0.02272    0.53833    1.000
    N3110    N        0.49538    0.08596    0.55643    1.000
    Si3111   Si       0.58046    0.01410    0.57494    1.000
    Si3112   Si       0.49893    0.13063    0.56620    1.000
    N3113    N        0.59657    0.09037    0.52884    1.000
    N3114    N        0.73066    0.09953    0.56661    1.000
    Si3115   Si       0.69277    0.11317    0.55004    1.000
    Si3116   Si       0.65940    0.05193    0.56703    1.000
    N3117    N        0.66696    0.08181    0.53668    1.000
    N3118    N        0.66856    0.00721    0.55690    1.000
    N3119    N        0.62627    0.06796    0.58959    1.000
    N3120    N        0.53795    0.13035    0.53070    1.000
    Si3121   Si       0.54578    0.22207    0.54319    1.000
    N3122    N        0.58875    0.22882    0.53611    1.000
    N3123    N        0.66931    0.13301    0.58207    1.000
    N3124    N        0.63726    0.19395    0.57715    1.000
    N3125    N        0.70601    0.22335    0.58187    1.000
    Si3126   Si       0.73122    0.25773    0.57104    1.000
    Si3127   Si       0.62419    0.20316    0.53052    1.000
    Si3128   Si       0.63159    0.15324    0.57430    1.000
    Si3129   Si       0.66423    0.22750    0.57655    1.000
    N3130    N        0.61616    0.15679    0.53380    1.000
    N3131    N        0.65100    0.23972    0.53454    1.000
    N3132    N        0.58698    0.02028    0.61904    1.000
    Si3133   Si       0.56455    0.11866    0.62284    1.000
    N3134    N        0.49488    0.06425    0.61895    1.000
    N3135    N        0.55911    0.08201    0.59299    1.000
    N3136    N        0.59787    0.13310    0.59512    1.000
    Si3137   Si       0.52165    0.06093    0.58364    1.000
    Si3138   Si       0.61225    0.05703    0.62992    1.000
    N3139    N        0.69373    0.04585    0.59801    1.000
    N3140    N        0.71131    0.10227    0.63129    1.000
    Si3141   Si       0.72780    0.07420    0.60204    1.000
    Si3142   Si       0.68458    0.03229    0.63864    1.000
    N3143    N        0.52870    0.14035    0.59525    1.000
    Si3144   Si       0.52764    0.17700    0.61594    1.000
    Si3145   Si       0.55219    0.24262    0.61183    1.000
    N3146    N        0.58735    0.22825    0.63250    1.000
    N3147    N        0.53729    0.20956    0.58613    1.000
    N3148    N        0.51972    0.25194    0.64017    1.000
    N3149    N        0.48846    0.18213    0.63447    1.000
    Si3150   Si       0.73384    0.19022    0.59465    1.000
    N3151    N        0.71071    0.16997    0.62536    1.000
    Si3152   Si       0.68486    0.13482    0.62232    1.000
    N3153    N        0.53580    0.10920    0.65475    1.000
    Si3154   Si       0.58155    0.09402    0.68949    1.000
    Si3155   Si       0.50031    0.08580    0.65468    1.000
    N3156    N        0.49802    0.05637    0.68694    1.000
    N3157    N        0.59663    0.09366    0.64820    1.000
    N3158    N        0.71780    0.03408    0.66723    1.000
    Si3159   Si       0.72091    0.10466    0.67299    1.000
    Si3160   Si       0.65111    0.09261    0.67356    1.000
    N3161    N        0.64998    0.05444    0.65014    1.000
    N3162    N        0.68912    0.08727    0.69588    1.000
    Si3163   Si       0.53512    0.14106    0.68920    1.000
    Si3164   Si       0.58077    0.20095    0.66445    1.000
    N3165    N        0.56293    0.22361    0.69898    1.000
    N3166    N        0.55762    0.17072    0.64650    1.000
    Si3167   Si       0.48658    0.22362    0.65046    1.000
    N3168    N        0.65789    0.13334    0.65780    1.000
    N3169    N        0.73603    0.14492    0.68296    1.000
    N3170    N        0.64076    0.25266    0.66893    1.000
    N3171    N        0.61380    0.18549    0.68649    1.000
    Si3172   Si       0.72217    0.18236    0.66798    1.000
    N3173    N        0.68335    0.19538    0.68175    1.000
    Si3174   Si       0.65130    0.16560    0.68815    1.000
    Si3175   Si       0.66557    0.23192    0.69709    1.000
    N3176    N        0.51142    0.11004    0.71793    1.000
    Si3177   Si       0.52238    0.06723    0.71991    1.000
    Si3178   Si       0.57627    0.01819    0.71203    1.000
    N3179    N        0.50888    0.04421    0.75383    1.000
    N3180    N        0.57167    0.01077    0.75595    1.000
    N3181    N        0.57362    0.13317    0.70724    1.000
    N3182    N        0.56276    0.05854    0.70563    1.000
    Si3183   Si       0.63645    0.08925    0.74654    1.000
    Si3184   Si       0.64184    0.01068    0.74250    1.000
    Si3185   Si       0.70113    0.04799    0.70728    1.000
    N3186    N        0.68347    0.01558    0.73086    1.000
    N3187    N        0.73336    0.04906    0.73605    1.000
    N3188    N        0.62428    0.08923    0.70616    1.000
    Si3189   Si       0.60552    0.14626    0.73477    1.000
    Si3190   Si       0.52289    0.21354    0.71849    1.000
    N3191    N        0.58502    0.25337    0.74982    1.000
    Si3192   Si       0.59911    0.21522    0.72455    1.000
    N3193    N        0.59086    0.18304    0.75257    1.000
    N3194    N        0.51231    0.17586    0.70008    1.000
    N3195    N        0.64905    0.14826    0.72591    1.000
    N3196    N        0.63995    0.22368    0.73118    1.000
    Si3197   Si       0.67835    0.14196    0.75990    1.000
    N3198    N        0.71995    0.15514    0.76246    1.000
    Si3199   Si       0.52346    0.06150    0.79144    1.000
    N3200    N        0.56184    0.07458    0.77908    1.000
    Si3201   Si       0.58942    0.04086    0.78090    1.000
    Si3202   Si       0.57352    0.11415    0.79001    1.000
    N3203    N        0.49677    0.09389    0.80014    1.000
    N3204    N        0.60780    0.11807    0.76625    1.000
    N3205    N        0.69812    0.03785    0.79824    1.000
    Si3206   Si       0.66539    0.06461    0.79542    1.000
    N3207    N        0.67274    0.09999    0.77042    1.000
    N3208    N        0.63167    0.04870    0.76636    1.000
    Si3209   Si       0.71537    0.01942    0.76227    1.000
    Si3210   Si       0.50899    0.13382    0.81078    1.000
    Si3211   Si       0.50183    0.24905    0.77333    1.000
    Si3212   Si       0.55875    0.18853    0.78175    1.000
    N3213    N        0.54562    0.14776    0.79120    1.000
    N3214    N        0.57464    0.21741    0.81209    1.000
    Si3215   Si       0.59567    0.25301    0.79013    1.000
    N3216    N        0.52557    0.20871    0.76266    1.000
    Si3217   Si       0.65378    0.20970    0.77091    1.000
    N3218    N        0.69509    0.22142    0.76796    1.000
    N3219    N        0.63368    0.23344    0.80370    1.000
    N3220    N        0.66083    0.17141    0.78820    1.000
    Si3221   Si       0.73046    0.19685    0.77273    1.000
    Si3222   Si       0.53831    0.08593    0.85386    1.000
    N3223    N        0.53371    0.04876    0.83170    1.000
    N3224    N        0.57485    0.10792    0.83359    1.000
    N3225    N        0.51656    0.12756    0.85358    1.000
    N3226    N        0.49653    0.07309    0.87905    1.000
    Si3227   Si       0.55415    0.00905    0.83611    1.000
    N3228    N        0.59349    0.02077    0.82052    1.000
    Si3229   Si       0.62475    0.03116    0.84903    1.000
    N3230    N        0.71732    0.08018    0.85148    1.000
    N3231    N        0.64847    0.06336    0.83527    1.000
    Si3232   Si       0.66188    0.09638    0.86009    1.000
    Si3233   Si       0.72212    0.03932    0.83502    1.000
    Si3234   Si       0.72293    0.11830    0.82884    1.000
    N3235    N        0.68108    0.13039    0.83875    1.000
    Si3236   Si       0.59659    0.13859    0.85746    1.000
    N3237    N        0.55418    0.24777    0.86930    1.000
    Si3238   Si       0.53907    0.23383    0.83088    1.000
    N3239    N        0.51858    0.19516    0.83880    1.000
    Si3240   Si       0.52803    0.16764    0.87054    1.000
    Si3241   Si       0.66391    0.16893    0.83175    1.000
    N3242    N        0.62123    0.22541    0.87424    1.000
    Si3243   Si       0.61147    0.21068    0.83388    1.000
    N3244    N        0.62068    0.16916    0.84000    1.000
    Si3245   Si       0.71401    0.23395    0.83784    1.000
    N3246    N        0.68184    0.20426    0.84971    1.000
    N3247    N        0.73507    0.25124    0.87283    1.000
    Si3248   Si       0.59914    0.07834    0.90126    1.000
    Si3249   Si       0.52427    0.06936    0.91992    1.000
    N3250    N        0.55814    0.07575    0.88980    1.000
    N3251    N        0.50558    0.10944    0.92963    1.000
    Si3252   Si       0.48925    0.11612    0.88909    1.000
    N3253    N        0.61520    0.03856    0.89244    1.000
    N3254    N        0.72915    0.05747    0.91612    1.000
    N3255    N        0.67754    0.09238    0.90191    1.000
    Si3256   Si       0.71914    0.09312    0.89268    1.000
    Si3257   Si       0.63956    0.12171    0.92301    1.000
    Si3258   Si       0.68694    0.05596    0.92609    1.000
    N3259    N        0.67390    0.01501    0.92354    1.000
    Si3260   Si       0.62982    0.01039    0.92343    1.000
    N3261    N        0.62238    0.11236    0.88156    1.000
    N3262    N        0.56818    0.16272    0.88276    1.000
    Si3263   Si       0.58701    0.23904    0.89724    1.000
    N3264    N        0.50111    0.16795    0.90380    1.000
    Si3265   Si       0.58164    0.17359    0.92362    1.000
    N3266    N        0.57066    0.21514    0.92896    1.000
    Si3267   Si       0.66593    0.22076    0.88657    1.000
    N3268    N        0.68397    0.19535    0.91698    1.000
    N3269    N        0.62291    0.16412    0.92770    1.000
    Si3270   Si       0.72139    0.20144    0.93783    1.000
    Si3271   Si       0.58181    0.08922    0.97628    1.000
    Si3272   Si       0.52852    0.03426    0.97437    1.000
    N3273    N        0.55098    0.06671    0.95506    1.000
    N3274    N        0.50033    0.03658    0.93893    1.000
    N3275    N        0.60747    0.09763    0.94059    1.000
    N3276    N        0.61858    0.01778    0.96418    1.000
    N3277    N        0.66939    0.06671    0.96548    1.000
    Si3278   Si       0.68287    0.10340    0.97955    1.000
    N3279    N        0.72811    0.10088    0.97997    1.000
    Si3280   Si       0.63910    0.04728    0.99034    1.000
    Si3281   Si       0.54138    0.23729    0.95594    1.000
    N3282    N        0.50563    0.22049    0.97007    1.000
    N3283    N        0.55508    0.15483    0.95196    1.000
    Si3284   Si       0.51215    0.14995    0.94222    1.000
    N3285    N        0.49061    0.15494    0.97910    1.000
    Si3286   Si       0.56516    0.15286    0.99450    1.000
    Si3287   Si       0.67706    0.23896    0.98311    1.000
    N3288    N        0.67188    0.13558    0.95365    1.000
    N3289    N        0.65669    0.20193    0.97898    1.000
    Si3290   Si       0.66020    0.17541    0.94658    1.000
    N3291    N        0.71469    0.23664    0.96187    1.000
    N3292    N        0.73209    0.17134    0.96670    1.000
    Si3293   Si       0.56433    0.28789    0.01472    1.000
    Si3294   Si       0.53625    0.36565    0.00544    1.000
    N3295    N        0.49445    0.35628    0.01249    1.000
    N3296    N        0.60692    0.28925    0.02737    1.000
    N3297    N        0.60949    0.35912    0.04895    1.000
    N3298    N        0.55734    0.32831    0.00178    1.000
    N3299    N        0.54415    0.25604    0.03924    1.000
    Si3300   Si       0.62137    0.32956    0.01855    1.000
    N3301    N        0.66425    0.32443    0.02847    1.000
    N3302    N        0.72781    0.34721    0.04637    1.000
    N3303    N        0.72578    0.29918    0.99816    1.000
    N3304    N        0.49199    0.44346    0.02842    1.000
    N3305    N        0.54588    0.39018    0.03927    1.000
    Si3306   Si       0.59163    0.49574    0.04391    1.000
    N3307    N        0.59525    0.47757    0.00468    1.000
    Si3308   Si       0.51057    0.41059    0.05524    1.000
    N3309    N        0.68983    0.46117    0.02822    1.000
    Si3310   Si       0.71831    0.49202    0.01897    1.000
    N3311    N        0.64783    0.41824    0.03090    1.000
    Si3312   Si       0.67494    0.43171    0.99839    1.000
    N3313    N        0.56053    0.36639    0.10338    1.000
    N3314    N        0.60190    0.30595    0.11467    1.000
    N3315    N        0.67377    0.30557    0.09370    1.000
    N3316    N        0.67364    0.37286    0.08067    1.000
    Si3317   Si       0.68905    0.33542    0.06569    1.000
    Si3318   Si       0.63718    0.28704    0.10621    1.000
    Si3319   Si       0.57777    0.38075    0.06653    1.000
    N3320    N        0.52857    0.42591    0.09175    1.000
    Si3321   Si       0.52940    0.46975    0.09758    1.000
    N3322    N        0.55738    0.48507    0.07019    1.000
    N3323    N        0.49108    0.48674    0.08745    1.000
    N3324    N        0.61031    0.41223    0.08536    1.000
    Si3325   Si       0.65836    0.45416    0.05693    1.000
    N3326    N        0.62830    0.48614    0.06538    1.000
    Si3327   Si       0.63835    0.38941    0.05931    1.000
    N3328    N        0.72948    0.41196    0.07796    1.000
    N3329    N        0.67189    0.44136    0.09639    1.000
    Si3330   Si       0.69434    0.40353    0.10026    1.000
    Si3331   Si       0.63643    0.50768    0.10331    1.000
    N3332    N        0.54232    0.32041    0.15652    1.000
    Si3333   Si       0.57527    0.33722    0.13133    1.000
    Si3334   Si       0.50640    0.34439    0.16213    1.000
    N3335    N        0.59649    0.35484    0.16473    1.000
    Si3336   Si       0.71802    0.36105    0.15323    1.000
    Si3337   Si       0.69017    0.30043    0.13340    1.000
    N3338    N        0.65360    0.27599    0.14623    1.000
    N3339    N        0.72183    0.27141    0.13212    1.000
    N3340    N        0.68959    0.33088    0.16525    1.000
    N3341    N        0.73399    0.33968    0.11835    1.000
    N3342    N        0.50412    0.37938    0.13784    1.000
    Si3343   Si       0.54051    0.39848    0.12296    1.000
    N3344    N        0.53640    0.47901    0.14010    1.000
    N3345    N        0.56580    0.41807    0.15202    1.000
    Si3346   Si       0.60037    0.39761    0.16963    1.000
    Si3347   Si       0.55343    0.45664    0.17158    1.000
    N3348    N        0.73574    0.47149    0.11245    1.000
    Si3349   Si       0.67756    0.42166    0.17061    1.000
    N3350    N        0.70131    0.39915    0.14152    1.000
    Si3351   Si       0.63148    0.43453    0.11717    1.000
    Si3352   Si       0.69473    0.47246    0.11866    1.000
    N3353    N        0.68842    0.46526    0.16048    1.000
    N3354    N        0.62693    0.47614    0.13180    1.000
    N3355    N        0.63718    0.41275    0.15368    1.000
    N3356    N        0.58844    0.28251    0.19061    1.000
    Si3357   Si       0.60067    0.32794    0.19835    1.000
    N3358    N        0.50543    0.35507    0.20422    1.000
    N3359    N        0.53335    0.29134    0.21851    1.000
    Si3360   Si       0.54577    0.28264    0.17667    1.000
    N3361    N        0.57478    0.34488    0.22877    1.000
    Si3362   Si       0.53267    0.33364    0.22967    1.000
    Si3363   Si       0.57101    0.26811    0.23099    1.000
    N3364    N        0.69576    0.27815    0.20927    1.000
    N3365    N        0.63862    0.31817    0.21713    1.000
    Si3366   Si       0.67963    0.31852    0.20652    1.000
    Si3367   Si       0.73558    0.28020    0.22971    1.000
    N3368    N        0.69894    0.34718    0.22940    1.000
    Si3369   Si       0.60531    0.45079    0.21698    1.000
    N3370    N        0.58853    0.47649    0.18549    1.000
    N3371    N        0.53319    0.45022    0.20952    1.000
    N3372    N        0.59752    0.40952    0.21033    1.000
    N3373    N        0.64719    0.45816    0.20831    1.000
    Si3374   Si       0.72347    0.47156    0.18894    1.000
    N3375    N        0.69857    0.41735    0.20909    1.000
    N3376    N        0.70973    0.47952    0.23176    1.000
    Si3377   Si       0.64387    0.48096    0.17066    1.000
    N3378    N        0.52589    0.33701    0.27260    1.000
    N3379    N        0.60449    0.27500    0.25719    1.000
    Si3380   Si       0.50471    0.27141    0.24385    1.000
    Si3381   Si       0.63720    0.30335    0.25698    1.000
    N3382    N        0.67595    0.28268    0.27389    1.000
    Si3383   Si       0.72996    0.35527    0.25521    1.000
    N3384    N        0.59772    0.46407    0.25824    1.000
    N3385    N        0.50347    0.45048    0.27726    1.000
    N3386    N        0.54634    0.40019    0.25823    1.000
    Si3387   Si       0.58520    0.38538    0.24253    1.000
    Si3388   Si       0.50292    0.49168    0.27905    1.000
    Si3389   Si       0.51559    0.42860    0.24224    1.000
    Si3390   Si       0.58239    0.50413    0.26548    1.000
    N3391    N        0.61329    0.39306    0.27386    1.000
    Si3392   Si       0.62264    0.43611    0.28358    1.000
    Si3393   Si       0.67917    0.44732    0.23525    1.000
    N3394    N        0.66611    0.44892    0.27642    1.000
    Si3395   Si       0.50636    0.31447    0.30424    1.000
    N3396    N        0.57092    0.36281    0.31926    1.000
    N3397    N        0.52366    0.31611    0.34447    1.000
    Si3398   Si       0.59931    0.27590    0.34209    1.000
    Si3399   Si       0.53662    0.37725    0.29428    1.000
    N3400    N        0.50449    0.27419    0.28946    1.000
    Si3401   Si       0.61294    0.36455    0.30749    1.000
    N3402    N        0.63616    0.26399    0.31990    1.000
    Si3403   Si       0.66080    0.29798    0.31162    1.000
    N3404    N        0.68710    0.31553    0.33878    1.000
    N3405    N        0.64243    0.37631    0.33733    1.000
    Si3406   Si       0.68208    0.35916    0.33099    1.000
    N3407    N        0.70958    0.36312    0.29382    1.000
    N3408    N        0.63203    0.32694    0.29640    1.000
    N3409    N        0.49064    0.50476    0.31773    1.000
    N3410    N        0.49563    0.38683    0.30823    1.000
    Si3411   Si       0.50215    0.42922    0.31569    1.000
    N3412    N        0.54372    0.42355    0.32540    1.000
    N3413    N        0.61111    0.44751    0.32284    1.000
    Si3414   Si       0.57396    0.44616    0.34706    1.000
    N3415    N        0.55556    0.48741    0.34975    1.000
    N3416    N        0.67991    0.48421    0.33265    1.000
    N3417    N        0.73637    0.49352    0.29119    1.000
    N3418    N        0.72837    0.43302    0.30766    1.000
    Si3419   Si       0.70134    0.46660    0.29943    1.000
    Si3420   Si       0.73582    0.39122    0.31593    1.000
    Si3421   Si       0.51684    0.28884    0.37704    1.000
    N3422    N        0.53997    0.36846    0.38567    1.000
    N3423    N        0.58703    0.31219    0.36415    1.000
    Si3424   Si       0.50116    0.35269    0.39722    1.000
    Si3425   Si       0.58601    0.28599    0.39998    1.000
    Si3426   Si       0.55929    0.34292    0.35510    1.000
    N3427    N        0.61613    0.25962    0.38181    1.000
    N3428    N        0.54621    0.26340    0.39611    1.000
    N3429    N        0.50909    0.31342    0.41166    1.000
    N3430    N        0.69614    0.26725    0.39093    1.000
    Si3431   Si       0.70692    0.30657    0.37552    1.000
    N3432    N        0.69404    0.34298    0.39822    1.000
    Si3433   Si       0.71322    0.38213    0.39720    1.000
    N3434    N        0.71412    0.38190    0.35361    1.000
    N3435    N        0.62634    0.37190    0.40669    1.000
    Si3436   Si       0.65333    0.26501    0.40370    1.000
    N3437    N        0.58745    0.41864    0.38043    1.000
    N3438    N        0.50323    0.48366    0.38874    1.000
    Si3439   Si       0.55728    0.40155    0.40694    1.000
    N3440    N        0.65285    0.43506    0.37433    1.000
    N3441    N        0.70873    0.48186    0.39538    1.000
    N3442    N        0.61949    0.49683    0.36609    1.000
    Si3443   Si       0.62780    0.40147    0.37452    1.000
    Si3444   Si       0.64232    0.46645    0.34505    1.000
    N3445    N        0.57505    0.30045    0.43903    1.000
    Si3446   Si       0.53270    0.29234    0.44230    1.000
    N3447    N        0.49448    0.37407    0.43601    1.000
    Si3448   Si       0.61343    0.29945    0.45675    1.000
    N3449    N        0.57214    0.38296    0.44383    1.000
    Si3450   Si       0.61819    0.37076    0.45273    1.000
    N3451    N        0.64183    0.30242    0.42345    1.000
    N3452    N        0.66487    0.36405    0.45432    1.000
    Si3453   Si       0.65687    0.34185    0.41663    1.000
    N3454    N        0.50126    0.48731    0.45906    1.000
    N3455    N        0.56657    0.48522    0.42700    1.000
    N3456    N        0.52769    0.42998    0.42204    1.000
    Si3457   Si       0.52438    0.47379    0.42363    1.000
    Si3458   Si       0.48849    0.41628    0.43617    1.000
    Si3459   Si       0.63908    0.49775    0.46722    1.000
    N3460    N        0.73760    0.47392    0.45770    1.000
    N3461    N        0.64933    0.47678    0.42769    1.000
    Si3462   Si       0.69019    0.39986    0.46039    1.000
    N3463    N        0.69654    0.41536    0.41900    1.000
    Si3464   Si       0.67730    0.45108    0.40719    1.000
    N3465    N        0.56716    0.36372    0.50901    1.000
    Si3466   Si       0.50410    0.27543    0.49793    1.000
    N3467    N        0.51432    0.31284    0.47943    1.000
    N3468    N        0.50271    0.37509    0.50175    1.000
    Si3469   Si       0.60040    0.33801    0.51906    1.000
    Si3470   Si       0.49069    0.34612    0.46956    1.000
    N3471    N        0.61783    0.33503    0.47861    1.000
    Si3472   Si       0.73248    0.29956    0.50373    1.000
    Si3473   Si       0.66383    0.33249    0.48776    1.000
    N3474    N        0.69491    0.30322    0.48127    1.000
    Si3475   Si       0.67788    0.26895    0.51078    1.000
    N3476    N        0.62090    0.26252    0.47928    1.000
    Si3477   Si       0.72122    0.37427    0.52079    1.000
    N3478    N        0.68301    0.35432    0.51981    1.000
    N3479    N        0.64773    0.30185    0.52721    1.000
    Si3480   Si       0.56891    0.47434    0.50094    1.000
    Si3481   Si       0.57141    0.39804    0.48438    1.000
    N3482    N        0.55383    0.43390    0.49825    1.000
    N3483    N        0.67859    0.50179    0.48198    1.000
    Si3484   Si       0.63589    0.43602    0.50082    1.000
    Si3485   Si       0.70465    0.46669    0.48348    1.000
    N3486    N        0.72624    0.39162    0.48267    1.000
    N3487    N        0.61470    0.40450    0.48276    1.000
    N3488    N        0.67470    0.43523    0.47960    1.000
    N3489    N        0.61357    0.47191    0.49101    1.000
    N3490    N        0.52337    0.32908    0.55450    1.000
    Si3491   Si       0.54690    0.29240    0.55204    1.000
    N3492    N        0.52771    0.26034    0.53176    1.000
    Si3493   Si       0.53105    0.36217    0.53060    1.000
    N3494    N        0.58343    0.29714    0.52994    1.000
    N3495    N        0.62297    0.35647    0.55208    1.000
    Si3496   Si       0.66059    0.33541    0.55205    1.000
    N3497    N        0.71583    0.27399    0.53412    1.000
    Si3498   Si       0.61500    0.26700    0.52281    1.000
    N3499    N        0.54086    0.39704    0.55818    1.000
    N3500    N        0.55437    0.47255    0.54385    1.000
    Si3501   Si       0.53342    0.43336    0.53684    1.000
    N3502    N        0.48979    0.43319    0.53481    1.000
    Si3503   Si       0.57143    0.48185    0.58155    1.000
    N3504    N        0.71346    0.45838    0.52468    1.000
    Si3505   Si       0.69116    0.43240    0.54965    1.000
    Si3506   Si       0.63605    0.44341    0.57893    1.000
    N3507    N        0.71572    0.39712    0.55771    1.000
    N3508    N        0.64799    0.43145    0.54002    1.000
    N3509    N        0.61304    0.48353    0.57958    1.000
    N3510    N        0.57447    0.35170    0.59845    1.000
    Si3511   Si       0.57348    0.31335    0.61724    1.000
    N3512    N        0.55793    0.28127    0.59201    1.000
    N3513    N        0.49657    0.36671    0.60210    1.000
    Si3514   Si       0.53808    0.37812    0.59623    1.000
    N3515    N        0.60732    0.29533    0.63850    1.000
    Si3516   Si       0.61102    0.37427    0.58981    1.000
    N3517    N        0.72820    0.28275    0.60595    1.000
    N3518    N        0.70939    0.36898    0.62887    1.000
    N3519    N        0.63690    0.36726    0.62372    1.000
    Si3520   Si       0.68588    0.28746    0.61255    1.000
    N3521    N        0.67855    0.32482    0.58947    1.000
    Si3522   Si       0.67328    0.34680    0.62679    1.000
    N3523    N        0.65280    0.25966    0.60237    1.000
    Si3524   Si       0.62147    0.25625    0.63001    1.000
    Si3525   Si       0.73457    0.37978    0.59272    1.000
    Si3526   Si       0.57949    0.42587    0.62966    1.000
    N3527    N        0.60577    0.41673    0.59621    1.000
    N3528    N        0.54942    0.39604    0.63493    1.000
    Si3529   Si       0.51387    0.45423    0.62490    1.000
    N3530    N        0.49875    0.49567    0.63074    1.000
    N3531    N        0.55436    0.45864    0.61370    1.000
    Si3532   Si       0.70075    0.48470    0.60405    1.000
    N3533    N        0.67823    0.44961    0.58901    1.000
    N3534    N        0.73205    0.47242    0.63028    1.000
    N3535    N        0.59033    0.35950    0.67718    1.000
    Si3536   Si       0.55006    0.36293    0.66378    1.000
    N3537    N        0.52465    0.36198    0.69859    1.000
    N3538    N        0.53933    0.32323    0.64372    1.000
    Si3539   Si       0.50565    0.29446    0.64209    1.000
    N3540    N        0.67764    0.30786    0.65139    1.000
    Si3541   Si       0.63855    0.29654    0.67149    1.000
    Si3542   Si       0.70404    0.29716    0.68578    1.000
    N3543    N        0.65802    0.37973    0.68527    1.000
    N3544    N        0.51112    0.44852    0.66957    1.000
    N3545    N        0.60612    0.42427    0.66264    1.000
    Si3546   Si       0.48863    0.48816    0.67817    1.000
    N3547    N        0.55701    0.50224    0.66617    1.000
    Si3548   Si       0.73076    0.39534    0.65608    1.000
    Si3549   Si       0.62288    0.38373    0.66101    1.000
    Si3550   Si       0.61995    0.45221    0.69241    1.000
    N3551    N        0.71394    0.42911    0.67978    1.000
    Si3552   Si       0.72524    0.46938    0.67324    1.000
    N3553    N        0.62909    0.49115    0.67472    1.000
    N3554    N        0.70044    0.50479    0.67835    1.000
    Si3555   Si       0.68370    0.41100    0.70293    1.000
    N3556    N        0.58064    0.35830    0.74784    1.000
    Si3557   Si       0.59057    0.33454    0.71147    1.000
    N3558    N        0.51569    0.32484    0.75154    1.000
    Si3559   Si       0.55870    0.26427    0.71924    1.000
    N3560    N        0.56066    0.30421    0.70737    1.000
    Si3561   Si       0.51855    0.31843    0.70675    1.000
    N3562    N        0.51604    0.25793    0.72796    1.000
    N3563    N        0.62866    0.31168    0.70901    1.000
    Si3564   Si       0.65932    0.32295    0.73706    1.000
    N3565    N        0.69742    0.32527    0.71479    1.000
    Si3566   Si       0.72307    0.35957    0.72454    1.000
    Si3567   Si       0.69720    0.26275    0.75349    1.000
    N3568    N        0.69449    0.26138    0.70895    1.000
    Si3569   Si       0.51790    0.39433    0.72946    1.000
    N3570    N        0.58753    0.47158    0.71500    1.000
    N3571    N        0.54396    0.42658    0.72034    1.000
    N3572    N        0.51464    0.49145    0.71498    1.000
    Si3573   Si       0.60098    0.49613    0.74981    1.000
    Si3574   Si       0.54441    0.46371    0.69731    1.000
    Si3575   Si       0.65007    0.44908    0.75491    1.000
    N3576    N        0.65478    0.43942    0.71341    1.000
    N3577    N        0.70421    0.39425    0.73793    1.000
    N3578    N        0.71292    0.50461    0.74788    1.000
    N3579    N        0.64217    0.49141    0.75831    1.000
    Si3580   Si       0.54384    0.34956    0.77232    1.000
    N3581    N        0.55424    0.33253    0.80972    1.000
    N3582    N        0.52330    0.26747    0.80816    1.000
    N3583    N        0.60717    0.28872    0.80890    1.000
    Si3584   Si       0.61369    0.38064    0.76713    1.000
    N3585    N        0.61238    0.36743    0.80988    1.000
    N3586    N        0.70630    0.33936    0.80516    1.000
    Si3587   Si       0.66274    0.35020    0.80378    1.000
    Si3588   Si       0.64993    0.27724    0.80529    1.000
    N3589    N        0.66722    0.29080    0.76688    1.000
    N3590    N        0.65146    0.35754    0.76248    1.000
    N3591    N        0.73541    0.27758    0.77395    1.000
    N3592    N        0.52181    0.38506    0.77258    1.000
    Si3593   Si       0.51575    0.41621    0.80264    1.000
    Si3594   Si       0.50141    0.49274    0.80808    1.000
    N3595    N        0.58490    0.48838    0.78920    1.000
    Si3596   Si       0.59356    0.44717    0.79936    1.000
    N3597    N        0.49424    0.45276    0.79529    1.000
    N3598    N        0.55646    0.42692    0.81114    1.000
    N3599    N        0.67122    0.39365    0.81480    1.000
    Si3600   Si       0.72389    0.47164    0.77067    1.000
    N3601    N        0.61679    0.42479    0.76870    1.000
    N3602    N        0.68748    0.44747    0.77447    1.000
    Si3603   Si       0.69853    0.40648    0.77987    1.000
    N3604    N        0.59292    0.33284    0.86586    1.000
    N3605    N        0.52857    0.31217    0.86838    1.000
    Si3606   Si       0.52149    0.30892    0.82581    1.000
    Si3607   Si       0.59448    0.32739    0.82233    1.000
    N3608    N        0.65538    0.32257    0.83952    1.000
    Si3609   Si       0.69652    0.30927    0.83811    1.000
    N3610    N        0.68845    0.26831    0.82698    1.000
    N3611    N        0.71965    0.31858    0.87338    1.000
    Si3612   Si       0.63588    0.34007    0.87519    1.000
    N3613    N        0.63885    0.38375    0.87413    1.000
    N3614    N        0.52781    0.50036    0.84146    1.000
    N3615    N        0.49338    0.40181    0.84004    1.000
    N3616    N        0.60384    0.49654    0.87226    1.000
    N3617    N        0.73202    0.45375    0.85818    1.000
    Si3618   Si       0.63656    0.46902    0.86170    1.000
    Si3619   Si       0.71441    0.48678    0.83969    1.000
    N3620    N        0.62073    0.44050    0.83309    1.000
    Si3621   Si       0.63315    0.39940    0.83432    1.000
    N3622    N        0.67148    0.48822    0.84466    1.000
    N3623    N        0.60394    0.27217    0.91931    1.000
    N3624    N        0.53478    0.27138    0.92761    1.000
    Si3625   Si       0.55727    0.33870    0.88944    1.000
    N3626    N        0.56962    0.32925    0.93069    1.000
    Si3627   Si       0.52323    0.27245    0.88580    1.000
    N3628    N        0.64649    0.32558    0.91405    1.000
    Si3629   Si       0.71463    0.28115    0.89724    1.000
    Si3630   Si       0.64589    0.28211    0.92463    1.000
    N3631    N        0.72878    0.36590    0.92343    1.000
    N3632    N        0.67512    0.25983    0.90091    1.000
    N3633    N        0.73089    0.29644    0.93417    1.000
    N3634    N        0.54133    0.37880    0.89386    1.000
    N3635    N        0.59759    0.39184    0.93065    1.000
    N3636    N        0.50587    0.43122    0.90820    1.000
    Si3637   Si       0.52217    0.46636    0.92792    1.000
    Si3638   Si       0.55552    0.40501    0.92718    1.000
    N3639    N        0.53880    0.50136    0.90909    1.000
    N3640    N        0.56282    0.44859    0.92813    1.000
    Si3641   Si       0.58118    0.48721    0.90902    1.000
    Si3642   Si       0.50315    0.39572    0.88175    1.000
    N3643    N        0.66302    0.39098    0.93679    1.000
    N3644    N        0.70590    0.43822    0.92089    1.000
    Si3645   Si       0.67147    0.46431    0.92825    1.000
    Si3646   Si       0.63315    0.40744    0.91071    1.000
    N3647    N        0.64352    0.44742    0.89898    1.000
    N3648    N        0.68121    0.50550    0.92640    1.000
    Si3649   Si       0.58328    0.36036    0.95715    1.000
    N3650    N        0.56598    0.26425    0.97934    1.000
    Si3651   Si       0.57093    0.28920    0.94288    1.000
    N3652    N        0.61842    0.34606    0.97850    1.000
    N3653    N        0.66092    0.27756    0.96655    1.000
    N3654    N        0.68691    0.33812    0.96721    1.000
    Si3655   Si       0.72595    0.33427    0.95291    1.000
    Si3656   Si       0.64944    0.35071    0.94981    1.000
    Si3657   Si       0.68294    0.30335    0.99451    1.000
    N3658    N        0.54741    0.38325    0.96721    1.000
    N3659    N        0.50063    0.47235    0.96541    1.000
    N3660    N        0.61069    0.50091    0.93757    1.000
    N3661    N        0.65484    0.45728    0.96850    1.000
    Si3662   Si       0.62396    0.48628    0.97541    1.000
    N3663    N        0.72445    0.49227    0.97592    1.000
    N3664    N        0.70857    0.40677    0.98196    1.000
    Si3665   Si       0.70424    0.39927    0.93999    1.000
    N3666    N        0.55370    0.59033    0.02686    1.000
    Si3667   Si       0.50818    0.59563    0.03152    1.000
    N3668    N        0.58845    0.53731    0.03426    1.000
    Si3669   Si       0.56604    0.55618    0.00232    1.000
    Si3670   Si       0.56845    0.62886    0.01816    1.000
    N3671    N        0.69861    0.52818    0.03200    1.000
    N3672    N        0.65270    0.58141    0.00602    1.000
    Si3673   Si       0.65230    0.59608    0.04464    1.000
    N3674    N        0.50595    0.63853    0.03732    1.000
    N3675    N        0.53393    0.69885    0.02113    1.000
    Si3676   Si       0.53931    0.73808    0.00227    1.000
    Si3677   Si       0.51273    0.66573    0.00335    1.000
    N3678    N        0.58442    0.74328    0.99937    1.000
    N3679    N        0.57886    0.65579    0.05070    1.000
    Si3680   Si       0.58222    0.75825    0.03961    1.000
    Si3681   Si       0.68563    0.69972    0.00534    1.000
    N3682    N        0.69431    0.69363    0.04641    1.000
    N3683    N        0.65485    0.64126    0.04290    1.000
    Si3684   Si       0.69789    0.65097    0.03936    1.000
    N3685    N        0.64212    0.69546    0.99893    1.000
    N3686    N        0.69520    0.65688    0.99571    1.000
    N3687    N        0.55585    0.56877    0.09448    1.000
    Si3688   Si       0.51506    0.57687    0.09806    1.000
    N3689    N        0.51013    0.61994    0.10619    1.000
    Si3690   Si       0.58052    0.57294    0.05880    1.000
    N3691    N        0.49256    0.56774    0.06201    1.000
    N3692    N        0.61505    0.59995    0.06805    1.000
    Si3693   Si       0.69680    0.53970    0.07265    1.000
    N3694    N        0.67529    0.57859    0.07638    1.000
    Si3695   Si       0.71553    0.59684    0.08700    1.000
    Si3696   Si       0.64133    0.58822    0.10447    1.000
    N3697    N        0.61997    0.54677    0.10479    1.000
    N3698    N        0.73449    0.55665    0.08232    1.000
    N3699    N        0.68117    0.51010    0.09889    1.000
    N3700    N        0.72716    0.62444    0.05523    1.000
    N3701    N        0.58134    0.72200    0.06535    1.000
    N3702    N        0.52100    0.68310    0.08761    1.000
    Si3703   Si       0.49505    0.64920    0.07831    1.000
    Si3704   Si       0.59938    0.71333    0.10395    1.000
    Si3705   Si       0.55286    0.68921    0.05682    1.000
    N3706    N        0.63092    0.74308    0.10602    1.000
    Si3707   Si       0.71258    0.72682    0.06689    1.000
    N3708    N        0.70192    0.72962    0.10865    1.000
    N3709    N        0.61400    0.67184    0.10398    1.000
    Si3710   Si       0.61727    0.64598    0.06646    1.000
    Si3711   Si       0.53206    0.52225    0.15201    1.000
    Si3712   Si       0.58605    0.56275    0.12538    1.000
    N3713    N        0.57142    0.53703    0.15561    1.000
    N3714    N        0.50295    0.54616    0.12862    1.000
    N3715    N        0.60565    0.60125    0.13645    1.000
    N3716    N        0.50462    0.60090    0.17178    1.000
    N3717    N        0.73020    0.61071    0.12407    1.000
    N3718    N        0.65811    0.62605    0.11959    1.000
    Si3719   Si       0.69526    0.62992    0.14146    1.000
    Si3720   Si       0.50597    0.63600    0.14579    1.000
    Si3721   Si       0.52831    0.70108    0.12614    1.000
    N3722    N        0.56705    0.71956    0.13294    1.000
    N3723    N        0.53534    0.66544    0.15286    1.000
    N3724    N        0.49313    0.72372    0.13934    1.000
    Si3725   Si       0.72453    0.70261    0.13598    1.000
    Si3726   Si       0.61928    0.64353    0.13533    1.000
    N3727    N        0.70325    0.66921    0.15228    1.000
    Si3728   Si       0.66944    0.75632    0.11951    1.000
    N3729    N        0.56684    0.59084    0.20542    1.000
    Si3730   Si       0.59488    0.51947    0.18619    1.000
    Si3731   Si       0.52467    0.60196    0.20877    1.000
    N3732    N        0.51461    0.52002    0.19136    1.000
    Si3733   Si       0.59727    0.60628    0.17975    1.000
    Si3734   Si       0.65120    0.54800    0.21832    1.000
    N3735    N        0.62919    0.58797    0.20663    1.000
    Si3736   Si       0.71308    0.58183    0.20331    1.000
    Si3737   Si       0.66206    0.61639    0.20842    1.000
    N3738    N        0.63968    0.52227    0.18308    1.000
    N3739    N        0.69526    0.54433    0.21642    1.000
    N3740    N        0.68849    0.60513    0.17588    1.000
    N3741    N        0.60050    0.64868    0.17754    1.000
    Si3742   Si       0.49664    0.74997    0.19394    1.000
    N3743    N        0.52700    0.64537    0.21511    1.000
    N3744    N        0.57551    0.69904    0.20790    1.000
    Si3745   Si       0.55821    0.66259    0.18933    1.000
    N3746    N        0.53872    0.75125    0.18255    1.000
    Si3747   Si       0.57718    0.73025    0.17394    1.000
    Si3748   Si       0.69665    0.67705    0.19387    1.000
    N3749    N        0.62511    0.72050    0.17697    1.000
    N3750    N        0.65819    0.66007    0.20408    1.000
    N3751    N        0.70411    0.71529    0.21259    1.000
    N3752    N        0.72742    0.65433    0.21553    1.000
    Si3753   Si       0.62270    0.68717    0.20444    1.000
    N3754    N        0.58970    0.59001    0.27073    1.000
    N3755    N        0.50975    0.57595    0.23927    1.000
    N3756    N        0.53994    0.50774    0.26467    1.000
    Si3757   Si       0.59459    0.57373    0.23094    1.000
    N3758    N        0.50197    0.62675    0.28015    1.000
    N3759    N        0.59229    0.52995    0.22885    1.000
    Si3760   Si       0.51764    0.53197    0.23382    1.000
    Si3761   Si       0.68519    0.58212    0.27419    1.000
    N3762    N        0.64887    0.56031    0.26174    1.000
    N3763    N        0.69253    0.60659    0.23853    1.000
    Si3764   Si       0.71892    0.52134    0.24682    1.000
    N3765    N        0.71256    0.55024    0.27947    1.000
    Si3766   Si       0.58664    0.63007    0.28667    1.000
    N3767    N        0.55958    0.73340    0.26865    1.000
    Si3768   Si       0.57897    0.69952    0.25048    1.000
    N3769    N        0.56437    0.66194    0.26598    1.000
    Si3770   Si       0.52273    0.65590    0.25736    1.000
    Si3771   Si       0.51651    0.73334    0.26475    1.000
    N3772    N        0.50348    0.69439    0.25200    1.000
    N3773    N        0.67573    0.74411    0.27346    1.000
    N3774    N        0.62325    0.69718    0.24813    1.000
    N3775    N        0.68937    0.67747    0.27057    1.000
    Si3776   Si       0.71003    0.64432    0.25312    1.000
    Si3777   Si       0.70312    0.71687    0.25683    1.000
    Si3778   Si       0.64736    0.68101    0.27998    1.000
    N3779    N        0.60061    0.52414    0.30008    1.000
    Si3780   Si       0.58921    0.51451    0.34175    1.000
    N3781    N        0.57212    0.62191    0.32642    1.000
    N3782    N        0.50266    0.61790    0.34763    1.000
    Si3783   Si       0.61704    0.56391    0.29098    1.000
    N3784    N        0.62729    0.58479    0.32651    1.000
    N3785    N        0.68537    0.60990    0.30710    1.000
    Si3786   Si       0.64859    0.62246    0.32346    1.000
    Si3787   Si       0.72181    0.62904    0.32108    1.000
    Si3788   Si       0.73592    0.53163    0.31099    1.000
    Si3789   Si       0.50438    0.70816    0.33450    1.000
    N3790    N        0.52489    0.67058    0.32411    1.000
    N3791    N        0.49938    0.73842    0.30391    1.000
    Si3792   Si       0.54102    0.63826    0.35257    1.000
    N3793    N        0.62797    0.64410    0.29128    1.000
    N3794    N        0.71197    0.72930    0.33589    1.000
    Si3795   Si       0.67310    0.73536    0.31697    1.000
    N3796    N        0.65237    0.69734    0.31929    1.000
    Si3797   Si       0.54730    0.56466    0.38350    1.000
    N3798    N        0.51404    0.55051    0.36179    1.000
    N3799    N        0.56400    0.60638    0.38358    1.000
    N3800    N        0.58231    0.55220    0.36045    1.000
    Si3801   Si       0.59335    0.59268    0.35027    1.000
    Si3802   Si       0.51576    0.50698    0.35464    1.000
    N3803    N        0.69536    0.59527    0.38581    1.000
    N3804    N        0.66739    0.53360    0.39330    1.000
    Si3805   Si       0.73045    0.57384    0.36897    1.000
    N3806    N        0.72425    0.53449    0.35180    1.000
    Si3807   Si       0.69246    0.50917    0.36698    1.000
    Si3808   Si       0.63178    0.50949    0.40531    1.000
    N3809    N        0.54261    0.66676    0.38841    1.000
    N3810    N        0.52695    0.73161    0.36262    1.000
    Si3811   Si       0.54052    0.71013    0.39850    1.000
    N3812    N        0.60248    0.71022    0.36538    1.000
    Si3813   Si       0.60827    0.75305    0.36088    1.000
    Si3814   Si       0.67696    0.75429    0.40585    1.000
    Si3815   Si       0.63862    0.69039    0.36006    1.000
    N3816    N        0.64336    0.64573    0.35988    1.000
    Si3817   Si       0.72885    0.69404    0.35510    1.000
    N3818    N        0.71152    0.65491    0.35447    1.000
    Si3819   Si       0.68007    0.63511    0.38335    1.000
    N3820    N        0.66264    0.71359    0.39229    1.000
    N3821    N        0.54600    0.54989    0.42464    1.000
    N3822    N        0.53025    0.61913    0.44080    1.000
    Si3823   Si       0.57235    0.52412    0.44792    1.000
    Si3824   Si       0.54205    0.58121    0.45630    1.000
    N3825    N        0.61512    0.52643    0.44344    1.000
    N3826    N        0.70424    0.56585    0.44804    1.000
    N3827    N        0.64061    0.59071    0.42864    1.000
    Si3828   Si       0.67675    0.57007    0.41450    1.000
    Si3829   Si       0.62131    0.57838    0.46727    1.000
    Si3830   Si       0.63286    0.63151    0.43894    1.000
    Si3831   Si       0.55925    0.63688    0.41487    1.000
    Si3832   Si       0.49230    0.63829    0.44650    1.000
    Si3833   Si       0.50467    0.75131    0.44767    1.000
    N3834    N        0.56978    0.71637    0.42960    1.000
    N3835    N        0.59610    0.65280    0.43013    1.000
    Si3836   Si       0.59418    0.68876    0.45193    1.000
    N3837    N        0.50126    0.71445    0.42307    1.000
    Si3838   Si       0.58196    0.75633    0.43919    1.000
    N3839    N        0.71081    0.68717    0.45131    1.000
    N3840    N        0.63566    0.70227    0.45621    1.000
    Si3841   Si       0.67198    0.69252    0.42951    1.000
    N3842    N        0.66754    0.64977    0.42147    1.000
    N3843    N        0.68311    0.74534    0.44797    1.000
    Si3844   Si       0.56328    0.55071    0.51077    1.000
    Si3845   Si       0.50364    0.52079    0.48620    1.000
    N3846    N        0.51370    0.56332    0.48247    1.000
    N3847    N        0.57928    0.57225    0.47561    1.000
    N3848    N        0.52758    0.61951    0.51486    1.000
    N3849    N        0.55623    0.51457    0.48898    1.000
    Si3850   Si       0.49316    0.59657    0.50164    1.000
    N3851    N        0.65095    0.55731    0.49157    1.000
    Si3852   Si       0.68978    0.54403    0.48369    1.000
    N3853    N        0.71467    0.55149    0.51722    1.000
    N3854    N        0.62554    0.62062    0.48178    1.000
    Si3855   Si       0.53764    0.65783    0.49878    1.000
    N3856    N        0.57525    0.68081    0.48907    1.000
    N3857    N        0.50403    0.66812    0.47575    1.000
    N3858    N        0.48699    0.73978    0.48701    1.000
    N3859    N        0.73047    0.74370    0.50799    1.000
    N3860    N        0.65638    0.74185    0.51517    1.000
    Si3861   Si       0.64847    0.73858    0.47381    1.000
    Si3862   Si       0.71473    0.65022    0.47402    1.000
    N3863    N        0.68584    0.64050    0.50614    1.000
    Si3864   Si       0.64500    0.63455    0.51867    1.000
    Si3865   Si       0.71874    0.75497    0.46795    1.000
    Si3866   Si       0.51596    0.52747    0.55968    1.000
    N3867    N        0.53797    0.56087    0.54459    1.000
    Si3868   Si       0.53634    0.60528    0.55561    1.000
    N3869    N        0.59756    0.54948    0.53852    1.000
    Si3870   Si       0.57715    0.55546    0.57755    1.000
    N3871    N        0.50401    0.61702    0.58171    1.000
    N3872    N        0.49710    0.50785    0.52775    1.000
    N3873    N        0.66154    0.53681    0.55856    1.000
    N3874    N        0.64530    0.60155    0.54869    1.000
    Si3875   Si       0.70396    0.54594    0.55997    1.000
    Si3876   Si       0.63690    0.56218    0.53167    1.000
    N3877    N        0.71151    0.58325    0.58006    1.000
    Si3878   Si       0.67586    0.60679    0.57841    1.000
    N3879    N        0.72191    0.50941    0.57429    1.000
    Si3880   Si       0.55623    0.75102    0.56976    1.000
    N3881    N        0.54291    0.67669    0.53944    1.000
    Si3882   Si       0.50997    0.69864    0.55709    1.000
    N3883    N        0.51660    0.74196    0.55066    1.000
    N3884    N        0.58520    0.72892    0.54698    1.000
    Si3885   Si       0.58534    0.68814    0.53215    1.000
    Si3886   Si       0.62664    0.74558    0.54568    1.000
    N3887    N        0.62645    0.67109    0.53478    1.000
    N3888    N        0.68454    0.65029    0.57384    1.000
    Si3889   Si       0.65572    0.68506    0.56598    1.000
    N3890    N        0.69624    0.69852    0.54306    1.000
    N3891    N        0.64847    0.72813    0.57993    1.000
    Si3892   Si       0.69599    0.74168    0.53414    1.000
    Si3893   Si       0.71356    0.66018    0.53720    1.000
    Si3894   Si       0.55634    0.60011    0.63081    1.000
    Si3895   Si       0.53665    0.52058    0.63262    1.000
    N3896    N        0.55241    0.52052    0.59083    1.000
    N3897    N        0.56745    0.59722    0.58836    1.000
    N3898    N        0.61242    0.54974    0.60476    1.000
    N3899    N        0.66752    0.50771    0.61861    1.000
    N3900    N        0.65759    0.60700    0.62137    1.000
    Si3901   Si       0.62580    0.57628    0.63388    1.000
    Si3902   Si       0.63682    0.51762    0.58934    1.000
    Si3903   Si       0.69563    0.60521    0.64390    1.000
    N3904    N        0.53393    0.63521    0.64028    1.000
    N3905    N        0.55585    0.74148    0.61402    1.000
    Si3906   Si       0.50374    0.64655    0.61213    1.000
    N3907    N        0.51147    0.68738    0.59891    1.000
    Si3908   Si       0.52336    0.71621    0.63005    1.000
    N3909    N        0.48890    0.74425    0.63159    1.000
    Si3910   Si       0.62663    0.64019    0.63009    1.000
    N3911    N        0.73014    0.70526    0.61105    1.000
    N3912    N        0.63106    0.67354    0.60321    1.000
    Si3913   Si       0.63847    0.71381    0.61985    1.000
    N3914    N        0.71440    0.64447    0.63454    1.000
    Si3915   Si       0.71820    0.66525    0.59811    1.000
    Si3916   Si       0.50087    0.56194    0.67442    1.000
    Si3917   Si       0.60146    0.62680    0.68748    1.000
    N3918    N        0.59790    0.60755    0.64588    1.000
    N3919    N        0.53488    0.56412    0.64560    1.000
    Si3920   Si       0.59244    0.50914    0.69030    1.000
    Si3921   Si       0.66135    0.51594    0.66040    1.000
    N3922    N        0.68376    0.60773    0.68584    1.000
    N3923    N        0.64642    0.55490    0.66568    1.000
    N3924    N        0.72900    0.57626    0.64545    1.000
    Si3925   Si       0.65711    0.57918    0.70147    1.000
    Si3926   Si       0.53536    0.65448    0.67877    1.000
    N3927    N        0.53288    0.69652    0.66818    1.000
    N3928    N        0.55642    0.75848    0.68484    1.000
    N3929    N        0.50604    0.63091    0.70172    1.000
    N3930    N        0.57127    0.65098    0.70324    1.000
    Si3931   Si       0.66232    0.68397    0.68190    1.000
    N3932    N        0.67339    0.70939    0.64718    1.000
    N3933    N        0.73621    0.70370    0.67873    1.000
    N3934    N        0.63278    0.65508    0.67022    1.000
    Si3935   Si       0.65273    0.74651    0.67448    1.000
    N3936    N        0.69597    0.75599    0.68234    1.000
    N3937    N        0.61869    0.74071    0.64687    1.000
    Si3938   Si       0.71406    0.73043    0.65103    1.000
    Si3939   Si       0.51054    0.52581    0.73934    1.000
    Si3940   Si       0.51761    0.60296    0.73242    1.000
    N3941    N        0.51664    0.56225    0.71527    1.000
    N3942    N        0.59448    0.53271    0.72648    1.000
    Si3943   Si       0.59502    0.57422    0.73787    1.000
    N3944    N        0.55934    0.59908    0.74652    1.000
    N3945    N        0.61974    0.59643    0.71163    1.000
    N3946    N        0.67483    0.54875    0.72657    1.000
    N3947    N        0.71142    0.60722    0.74839    1.000
    Si3948   Si       0.71176    0.52985    0.71295    1.000
    Si3949   Si       0.67333    0.52185    0.76041    1.000
    Si3950   Si       0.70754    0.63238    0.71294    1.000
    N3951    N        0.50825    0.72091    0.72697    1.000
    Si3952   Si       0.56968    0.66726    0.74339    1.000
    N3953    N        0.57438    0.71040    0.73172    1.000
    Si3954   Si       0.54458    0.72062    0.70276    1.000
    N3955    N        0.70552    0.71881    0.74843    1.000
    N3956    N        0.64411    0.71647    0.70552    1.000
    N3957    N        0.68349    0.66771    0.71440    1.000
    Si3958   Si       0.61430    0.72740    0.73565    1.000
    Si3959   Si       0.67182    0.69340    0.74843    1.000
    Si3960   Si       0.58043    0.61116    0.78384    1.000
    N3961    N        0.52436    0.52097    0.78216    1.000
    Si3962   Si       0.55812    0.51806    0.81057    1.000
    N3963    N        0.54806    0.61137    0.81153    1.000
    N3964    N        0.61114    0.58051    0.77817    1.000
    N3965    N        0.67200    0.54263    0.79811    1.000
    Si3966   Si       0.64101    0.57131    0.80871    1.000
    Si3967   Si       0.69278    0.62560    0.78427    1.000
    N3968    N        0.66660    0.60767    0.81303    1.000
    N3969    N        0.73308    0.63052    0.80459    1.000
    N3970    N        0.50128    0.72226    0.79417    1.000
    Si3971   Si       0.52889    0.64863    0.80501    1.000
    N3972    N        0.59643    0.65034    0.77306    1.000
    N3973    N        0.53267    0.66478    0.76646    1.000
    N3974    N        0.55170    0.75746    0.81732    1.000
    Si3975   Si       0.50097    0.69532    0.76102    1.000
    N3976    N        0.63408    0.70947    0.77058    1.000
    N3977    N        0.67800    0.75278    0.80221    1.000
    Si3978   Si       0.63527    0.74937    0.79748    1.000
    Si3979   Si       0.71676    0.73901    0.78737    1.000
    N3980    N        0.67152    0.66039    0.77848    1.000
    Si3981   Si       0.63159    0.66929    0.79106    1.000
    Si3982   Si       0.55241    0.58622    0.84795    1.000
    Si3983   Si       0.60300    0.53925    0.86442    1.000
    N3984    N        0.57506    0.55095    0.83335    1.000
    N3985    N        0.52111    0.56553    0.86858    1.000
    N3986    N        0.56652    0.62341    0.86923    1.000
    Si3987   Si       0.51895    0.52321    0.87607    1.000
    N3988    N        0.64088    0.55482    0.84993    1.000
    N3989    N        0.71620    0.52970    0.85553    1.000
    Si3990   Si       0.67562    0.53020    0.84041    1.000
    N3991    N        0.53866    0.68093    0.83421    1.000
    Si3992   Si       0.52713    0.72395    0.82977    1.000
    N3993    N        0.51586    0.74208    0.86827    1.000
    Si3994   Si       0.53935    0.65936    0.87279    1.000
    N3995    N        0.50354    0.63307    0.87661    1.000
    N3996    N        0.72868    0.71449    0.87214    1.000
    Si3997   Si       0.62575    0.69989    0.86409    1.000
    Si3998   Si       0.73568    0.63634    0.84837    1.000
    N3999    N        0.69799    0.65360    0.86013    1.000
    N4000    N        0.63298    0.66708    0.83494    1.000
    Si4001   Si       0.65920    0.63460    0.84713    1.000
    N4002    N        0.61392    0.73016    0.83313    1.000
    Si4003   Si       0.50572    0.59564    0.89571    1.000
    N4004    N        0.58607    0.56353    0.89630    1.000
    Si4005   Si       0.57155    0.58597    0.93138    1.000
    N4006    N        0.58839    0.62727    0.93073    1.000
    N4007    N        0.52731    0.58810    0.93274    1.000
    Si4008   Si       0.65947    0.60962    0.91982    1.000
    N4009    N        0.70186    0.61462    0.92034    1.000
    N4010    N        0.63929    0.62529    0.88485    1.000
    N4011    N        0.64604    0.57143    0.93617    1.000
    Si4012   Si       0.59955    0.63916    0.89233    1.000
    N4013    N        0.56905    0.75069    0.92410    1.000
    N4014    N        0.53072    0.68911    0.90414    1.000
    N4015    N        0.59408    0.68317    0.88816    1.000
    Si4016   Si       0.56867    0.70643    0.91771    1.000
    Si4017   Si       0.49412    0.71028    0.89052    1.000
    Si4018   Si       0.69841    0.68725    0.88807    1.000
    Si4019   Si       0.66473    0.74223    0.91514    1.000
    N4020    N        0.66037    0.70820    0.88875    1.000
    N4021    N        0.70736    0.75143    0.91975    1.000
    N4022    N        0.70909    0.68207    0.92922    1.000
    N4023    N        0.58840    0.57256    0.96921    1.000
    Si4024   Si       0.50504    0.56878    0.96497    1.000
    N4025    N        0.52901    0.53979    0.98554    1.000
    Si4026   Si       0.49657    0.50994    0.98459    1.000
    N4027    N        0.48431    0.59010    0.99560    1.000
    N4028    N        0.60622    0.63241    0.99564    1.000
    Si4029   Si       0.64682    0.52862    0.93836    1.000
    Si4030   Si       0.62852    0.59415    0.97258    1.000
    N4031    N        0.71064    0.55752    0.97007    1.000
    N4032    N        0.65119    0.52172    0.98188    1.000
    Si4033   Si       0.72757    0.58688    0.94352    1.000
    Si4034   Si       0.72276    0.52197    0.94327    1.000
    N4035    N        0.65374    0.63054    0.95688    1.000
    Si4036   Si       0.67901    0.54733    0.99772    1.000
    N4037    N        0.51561    0.74666    0.96753    1.000
    Si4038   Si       0.58015    0.65153    0.96371    1.000
    N4039    N        0.54431    0.64489    0.98518    1.000
    N4040    N        0.58685    0.69209    0.95461    1.000
    Si4041   Si       0.61244    0.71747    0.97743    1.000
    N4042    N        0.70911    0.72719    0.98306    1.000
    N4043    N        0.63470    0.74216    0.94844    1.000
    Si4044   Si       0.70598    0.64498    0.95417    1.000
    Si4045   Si       0.72699    0.71897    0.94249    1.000
    Si4046   Si       0.64577    0.65062    0.99633    1.000
    N4047    N        0.49837    0.81731    0.03298    1.000
    N4048    N        0.53149    0.86391    0.00898    1.000
    N4049    N        0.54016    0.76492    0.03772    1.000
    Si4050   Si       0.51912    0.85502    0.04949    1.000
    N4051    N        0.60854    0.85871    0.04899    1.000
    Si4052   Si       0.50463    0.78046    0.05567    1.000
    N4053    N        0.61203    0.78750    0.04749    1.000
    N4054    N        0.73462    0.84327    0.01657    1.000
    N4055    N        0.70183    0.76291    0.04426    1.000
    Si4056   Si       0.62455    0.82567    0.02760    1.000
    N4057    N        0.66889    0.82388    0.03530    1.000
    Si4058   Si       0.71759    0.76351    0.00460    1.000
    Si4059   Si       0.69259    0.83299    0.00146    1.000
    N4060    N        0.59538    0.98503    0.02624    1.000
    N4061    N        0.57560    0.91560    0.02310    1.000
    Si4062   Si       0.56768    0.95472    0.04235    1.000
    N4063    N        0.52738    0.96920    0.03521    1.000
    Si4064   Si       0.49775    0.94809    0.01067    1.000
    Si4065   Si       0.61385    0.90073    0.03978    1.000
    N4066    N        0.71139    0.91134    0.01519    1.000
    N4067    N        0.71770    0.00074    0.04969    1.000
    Si4068   Si       0.67377    0.92970    0.99737    1.000
    N4069    N        0.66700    0.96275    0.02550    1.000
    N4070    N        0.63862    0.90272    0.00435    1.000
    Si4071   Si       0.62673    0.00229    0.05135    1.000
    Si4072   Si       0.68931    0.00018    0.01877    1.000
    Si4073   Si       0.72806    0.91823    0.05567    1.000
    Si4074   Si       0.58729    0.84853    0.08484    1.000
    N4075    N        0.54551    0.83875    0.07863    1.000
    N4076    N        0.50406    0.78541    0.10028    1.000
    N4077    N        0.60584    0.81587    0.10532    1.000
    Si4078   Si       0.62840    0.78398    0.08708    1.000
    N4079    N        0.66962    0.79203    0.09506    1.000
    Si4080   Si       0.69550    0.80380    0.06321    1.000
    N4081    N        0.73257    0.81338    0.08147    1.000
    N4082    N        0.49629    0.88296    0.07399    1.000
    N4083    N        0.58726    0.88365    0.10847    1.000
    N4084    N        0.57200    0.95300    0.08668    1.000
    Si4085   Si       0.60074    0.92660    0.10177    1.000
    Si4086   Si       0.53525    0.97259    0.10201    1.000
    N4087    N        0.49773    0.95371    0.09660    1.000
    Si4088   Si       0.66432    0.95153    0.06835    1.000
    N4089    N        0.70095    0.93612    0.08344    1.000
    N4090    N        0.63037    0.92538    0.06986    1.000
    N4091    N        0.65121    0.98883    0.08475    1.000
    N4092    N        0.55315    0.81580    0.14584    1.000
    N4093    N        0.49965    0.84953    0.13348    1.000
    Si4094   Si       0.59752    0.81762    0.14832    1.000
    Si4095   Si       0.52428    0.87196    0.16343    1.000
    Si4096   Si       0.52497    0.82035    0.11278    1.000
    N4097    N        0.73499    0.79902    0.15654    1.000
    N4098    N        0.61788    0.85180    0.16532    1.000
    N4099    N        0.66982    0.77252    0.16093    1.000
    Si4100   Si       0.59729    0.88748    0.15136    1.000
    N4101    N        0.54592    0.97412    0.14525    1.000
    N4102    N        0.50647    0.91139    0.15552    1.000
    Si4103   Si       0.57927    0.99948    0.15882    1.000
    Si4104   Si       0.52285    0.94802    0.17195    1.000
    N4105    N        0.61921    0.99013    0.14501    1.000
    N4106    N        0.61625    0.92674    0.14303    1.000
    N4107    N        0.68849    0.95413    0.15037    1.000
    Si4108   Si       0.72180    0.94581    0.12245    1.000
    Si4109   Si       0.64349    0.95505    0.15985    1.000
    N4110    N        0.50998    0.84738    0.19847    1.000
    Si4111   Si       0.55491    0.79097    0.18173    1.000
    N4112    N        0.56498    0.81568    0.21463    1.000
    N4113    N        0.59627    0.77820    0.17094    1.000
    Si4114   Si       0.69652    0.80261    0.17746    1.000
    Si4115   Si       0.64682    0.85706    0.19406    1.000
    N4116    N        0.68596    0.84506    0.18219    1.000
    N4117    N        0.70068    0.79412    0.22158    1.000
    Si4118   Si       0.63473    0.76139    0.18421    1.000
    N4119    N        0.63578    0.77615    0.22473    1.000
    Si4120   Si       0.70121    0.87940    0.20498    1.000
    Si4121   Si       0.56440    0.90889    0.21557    1.000
    N4122    N        0.53631    0.94215    0.21067    1.000
    N4123    N        0.56322    0.88927    0.17698    1.000
    N4124    N        0.50928    0.00467    0.23136    1.000
    N4125    N        0.72653    0.98263    0.20211    1.000
    Si4126   Si       0.69922    0.94839    0.19306    1.000
    N4127    N        0.72484    0.91435    0.19449    1.000
    N4128    N        0.66236    0.89919    0.20111    1.000
    N4129    N        0.65612    0.96327    0.20462    1.000
    Si4130   Si       0.64940    0.00334    0.22390    1.000
    N4131    N        0.51827    0.82065    0.26701    1.000
    N4132    N        0.60112    0.80891    0.27397    1.000
    N4133    N        0.50139    0.76094    0.23521    1.000
    N4134    N        0.54649    0.88160    0.24557    1.000
    Si4135   Si       0.60359    0.80586    0.23097    1.000
    Si4136   Si       0.53587    0.84249    0.23280    1.000
    Si4137   Si       0.67202    0.77930    0.24970    1.000
    N4138    N        0.70528    0.86409    0.24616    1.000
    Si4139   Si       0.72554    0.82467    0.24226    1.000
    Si4140   Si       0.63588    0.84005    0.27538    1.000
    N4141    N        0.66901    0.80919    0.28170    1.000
    N4142    N        0.63221    0.84077    0.23055    1.000
    N4143    N        0.52829    0.94056    0.27737    1.000
    Si4144   Si       0.53230    0.97060    0.24360    1.000
    N4145    N        0.56999    0.98676    0.25908    1.000
    Si4146   Si       0.53879    0.89875    0.28484    1.000
    N4147    N        0.60349    0.91956    0.22740    1.000
    Si4148   Si       0.48990    0.95141    0.29140    1.000
    N4149    N        0.64515    0.88324    0.28014    1.000
    N4150    N        0.73557    0.98106    0.27954    1.000
    Si4151   Si       0.69384    0.96931    0.27574    1.000
    Si4152   Si       0.68709    0.89224    0.27498    1.000
    N4153    N        0.68112    0.93163    0.25758    1.000
    N4154    N        0.66745    0.00000    0.26262    1.000
    Si4155   Si       0.64594    0.92771    0.23137    1.000
    N4156    N        0.56134    0.83755    0.32719    1.000
    Si4157   Si       0.52406    0.83283    0.30767    1.000
    Si4158   Si       0.59536    0.80982    0.31732    1.000
    N4159    N        0.51055    0.79755    0.32827    1.000
    N4160    N        0.50945    0.87301    0.30439    1.000
    N4161    N        0.57919    0.77400    0.33543    1.000
    N4162    N        0.63254    0.83258    0.32312    1.000
    Si4163   Si       0.66569    0.80147    0.32430    1.000
    N4164    N        0.70918    0.79983    0.34018    1.000
    N4165    N        0.64764    0.76463    0.33923    1.000
    N4166    N        0.56215    0.97187    0.32967    1.000
    N4167    N        0.49682    0.99218    0.30510    1.000
    N4168    N        0.57808    0.90864    0.30051    1.000
    Si4169   Si       0.53189    0.00306    0.32990    1.000
    Si4170   Si       0.57440    0.95539    0.29122    1.000
    N4171    N        0.68260    0.96576    0.31824    1.000
    N4172    N        0.70648    0.88489    0.31341    1.000
    Si4173   Si       0.64041    0.97566    0.32214    1.000
    Si4174   Si       0.62048    0.90950    0.30223    1.000
    N4175    N        0.63600    0.90074    0.34462    1.000
    N4176    N        0.61946    0.95342    0.29331    1.000
    N4177    N        0.54205    0.80770    0.38532    1.000
    Si4178   Si       0.56469    0.84281    0.37101    1.000
    N4179    N        0.60601    0.83893    0.38249    1.000
    Si4180   Si       0.53944    0.77592    0.35295    1.000
    N4181    N        0.60107    0.77003    0.40249    1.000
    N4182    N        0.67983    0.84967    0.36784    1.000
    Si4183   Si       0.70067    0.81155    0.38439    1.000
    Si4184   Si       0.63721    0.85869    0.35857    1.000
    N4185    N        0.71542    0.76607    0.39215    1.000
    N4186    N        0.66250    0.79497    0.40287    1.000
    Si4187   Si       0.73655    0.75998    0.35449    1.000
    N4188    N        0.55354    0.88275    0.37920    1.000
    Si4189   Si       0.58369    0.97059    0.36833    1.000
    N4190    N        0.57003    0.94794    0.40435    1.000
    N4191    N        0.52015    0.00619    0.37071    1.000
    N4192    N        0.63526    0.89866    0.40906    1.000
    Si4193   Si       0.64859    0.92755    0.37739    1.000
    N4194    N        0.69283    0.92514    0.37132    1.000
    Si4195   Si       0.70851    0.96204    0.35101    1.000
    Si4196   Si       0.70300    0.88394    0.35484    1.000
    Si4197   Si       0.72228    0.91927    0.40342    1.000
    N4198    N        0.69977    0.99530    0.37905    1.000
    N4199    N        0.62425    0.96127    0.35903    1.000
    N4200    N        0.52410    0.83613    0.45202    1.000
    N4201    N        0.54180    0.77210    0.45578    1.000
    Si4202   Si       0.50834    0.81723    0.41298    1.000
    Si4203   Si       0.51338    0.87661    0.46332    1.000
    Si4204   Si       0.61568    0.87152    0.43791    1.000
    N4205    N        0.61513    0.82943    0.44531    1.000
    Si4206   Si       0.62191    0.80803    0.40831    1.000
    N4207    N        0.59804    0.00525    0.44185    1.000
    N4208    N        0.49299    0.97002    0.42973    1.000
    N4209    N        0.57667    0.89174    0.44417    1.000
    Si4210   Si       0.58742    0.96197    0.44293    1.000
    N4211    N        0.51232    0.90494    0.43160    1.000
    Si4212   Si       0.55194    0.91031    0.41133    1.000
    Si4213   Si       0.49803    0.00639    0.40663    1.000
    N4214    N        0.71484    0.99000    0.44609    1.000
    Si4215   Si       0.68172    0.99164    0.41852    1.000
    N4216    N        0.65642    0.95726    0.41692    1.000
    N4217    N        0.69706    0.91106    0.43713    1.000
    Si4218   Si       0.65355    0.92239    0.44222    1.000
    N4219    N        0.57811    0.81023    0.50057    1.000
    Si4220   Si       0.53901    0.80613    0.48356    1.000
    N4221    N        0.50704    0.79994    0.50923    1.000
    Si4222   Si       0.49423    0.86992    0.52355    1.000
    Si4223   Si       0.48901    0.76323    0.52400    1.000
    N4224    N        0.61548    0.76569    0.46701    1.000
    Si4225   Si       0.73805    0.83414    0.49272    1.000
    Si4226   Si       0.61692    0.80647    0.48129    1.000
    Si4227   Si       0.66478    0.86347    0.49952    1.000
    N4228    N        0.70753    0.86324    0.49101    1.000
    N4229    N        0.64643    0.82452    0.50558    1.000
    N4230    N        0.72399    0.80074    0.47068    1.000
    N4231    N        0.51750    0.00372    0.49337    1.000
    N4232    N        0.53440    0.88967    0.49978    1.000
    N4233    N        0.58998    0.91207    0.51746    1.000
    Si4234   Si       0.56494    0.91361    0.47983    1.000
    Si4235   Si       0.50954    0.96737    0.47101    1.000
    N4236    N        0.55135    0.95251    0.46654    1.000
    N4237    N        0.61746    0.94075    0.46565    1.000
    Si4238   Si       0.69952    0.97793    0.48497    1.000
    N4239    N        0.73560    0.98779    0.51094    1.000
    N4240    N        0.64050    0.88671    0.47106    1.000
    Si4241   Si       0.62985    0.91825    0.50069    1.000
    N4242    N        0.65993    0.99781    0.49000    1.000
    N4243    N        0.69141    0.93628    0.49772    1.000
    Si4244   Si       0.71292    0.90352    0.47696    1.000
    N4245    N        0.59447    0.85669    0.55083    1.000
    Si4246   Si       0.58804    0.81454    0.54273    1.000
    N4247    N        0.52552    0.85410    0.54770    1.000
    N4248    N        0.55699    0.79417    0.56658    1.000
    Si4249   Si       0.52930    0.82362    0.57783    1.000
    Si4250   Si       0.55811    0.88287    0.53738    1.000
    Si4251   Si       0.73149    0.79824    0.56662    1.000
    N4252    N        0.62172    0.78736    0.55120    1.000
    N4253    N        0.69497    0.78311    0.55025    1.000
    Si4254   Si       0.63269    0.87389    0.56327    1.000
    Si4255   Si       0.65948    0.80749    0.54698    1.000
    N4256    N        0.65809    0.84097    0.57412    1.000
    Si4257   Si       0.51124    0.00599    0.53616    1.000
    N4258    N        0.51020    0.96710    0.55473    1.000
    Si4259   Si       0.60023    0.93574    0.55379    1.000
    N4260    N        0.55474    0.91313    0.57247    1.000
    N4261    N        0.58143    0.96997    0.56960    1.000
    N4262    N        0.63608    0.95189    0.53178    1.000
    N4263    N        0.65863    0.89179    0.53272    1.000
    Si4264   Si       0.67506    0.93302    0.53875    1.000
    Si4265   Si       0.63795    0.99500    0.52744    1.000
    N4266    N        0.70799    0.94275    0.56408    1.000
    N4267    N        0.55097    0.84786    0.60796    1.000
    N4268    N        0.49234    0.80433    0.59039    1.000
    N4269    N        0.59208    0.80416    0.63887    1.000
    Si4270   Si       0.48907    0.78767    0.63021    1.000
    N4271    N        0.72675    0.82038    0.60402    1.000
    Si4272   Si       0.68291    0.83354    0.60896    1.000
    N4273    N        0.66647    0.79274    0.62251    1.000
    N4274    N        0.70505    0.87728    0.61323    1.000
    Si4275   Si       0.49412    0.97064    0.63054    1.000
    Si4276   Si       0.55320    0.88954    0.60659    1.000
    N4277    N        0.53599    0.96950    0.61948    1.000
    N4278    N        0.58339    0.90198    0.63587    1.000
    Si4279   Si       0.57165    0.98578    0.63996    1.000
    N4280    N        0.52056    0.89954    0.63797    1.000
    Si4281   Si       0.54381    0.95438    0.57938    1.000
    N4282    N        0.72264    0.94224    0.63445    1.000
    Si4283   Si       0.61983    0.92441    0.62838    1.000
    Si4284   Si       0.69649    0.00314    0.58732    1.000
    N4285    N        0.62244    0.91182    0.58452    1.000
    N4286    N        0.67886    0.99069    0.62491    1.000
    Si4287   Si       0.71883    0.91681    0.60009    1.000
    N4288    N        0.56090    0.85501    0.67864    1.000
    N4289    N        0.52303    0.80295    0.65067    1.000
    Si4290   Si       0.52591    0.78711    0.69030    1.000
    Si4291   Si       0.55868    0.82818    0.64424    1.000
    Si4292   Si       0.58056    0.76126    0.64851    1.000
    N4293    N        0.64157    0.78846    0.68422    1.000
    N4294    N        0.72533    0.81467    0.68269    1.000
    Si4295   Si       0.63561    0.80965    0.64815    1.000
    N4296    N        0.65554    0.84924    0.64580    1.000
    Si4297   Si       0.73606    0.85719    0.68579    1.000
    Si4298   Si       0.68100    0.88350    0.65133    1.000
    N4299    N        0.70118    0.88187    0.69101    1.000
    N4300    N        0.55835    0.99120    0.68170    1.000
    Si4301   Si       0.55287    0.89616    0.66821    1.000
    N4302    N        0.60798    0.96265    0.64698    1.000
    N4303    N        0.49229    0.96380    0.67368    1.000
    Si4304   Si       0.52730    0.96420    0.69814    1.000
    Si4305   Si       0.62782    0.96967    0.68665    1.000
    N4306    N        0.67009    0.96756    0.68978    1.000
    N4307    N        0.66195    0.91999    0.64250    1.000
    Si4308   Si       0.68482    0.95616    0.65021    1.000
    N4309    N        0.73490    0.96347    0.69688    1.000
    Si4310   Si       0.56577    0.84077    0.71916    1.000
    N4311    N        0.53199    0.81753    0.72035    1.000
    N4312    N        0.60425    0.82472    0.73283    1.000
    N4313    N        0.57178    0.87616    0.74511    1.000
    Si4314   Si       0.49618    0.82330    0.74769    1.000
    N4315    N        0.61727    0.76822    0.75194    1.000
    N4316    N        0.67921    0.80284    0.73721    1.000
    N4317    N        0.65663    0.86293    0.73718    1.000
    Si4318   Si       0.63825    0.79794    0.72567    1.000
    Si4319   Si       0.70857    0.78624    0.70940    1.000
    Si4320   Si       0.61565    0.86696    0.75295    1.000
    Si4321   Si       0.57731    0.91910    0.73117    1.000
    N4322    N        0.51357    0.97029    0.73989    1.000
    N4323    N        0.54787    0.92413    0.69980    1.000
    N4324    N        0.61261    0.93662    0.71387    1.000
    N4325    N        0.68330    0.93178    0.74448    1.000
    Si4326   Si       0.70097    0.97098    0.72282    1.000
    Si4327   Si       0.69098    0.89068    0.73341    1.000
    Si4328   Si       0.64102    0.93683    0.74680    1.000
    N4329    N        0.61694    0.00737    0.70797    1.000
    N4330    N        0.55867    0.81762    0.78470    1.000
    Si4331   Si       0.55129    0.86024    0.78205    1.000
    N4332    N        0.50920    0.85931    0.77261    1.000
    Si4333   Si       0.52741    0.79166    0.80305    1.000
    Si4334   Si       0.59872    0.80791    0.77423    1.000
    N4335    N        0.49284    0.79177    0.77707    1.000
    N4336    N        0.61816    0.84493    0.78915    1.000
    N4337    N        0.61681    0.78768    0.81367    1.000
    N4338    N        0.67509    0.82362    0.80465    1.000
    N4339    N        0.71057    0.86822    0.76559    1.000
    N4340    N        0.73366    0.77940    0.79921    1.000
    Si4341   Si       0.69628    0.79016    0.81723    1.000
    Si4342   Si       0.68105    0.83726    0.76327    1.000
    Si4343   Si       0.72577    0.87870    0.80393    1.000
    N4344    N        0.52856    0.98413    0.81067    1.000
    N4345    N        0.56503    0.94085    0.76719    1.000
    Si4346   Si       0.54398    0.97878    0.76971    1.000
    Si4347   Si       0.58887    0.91915    0.79570    1.000
    N4348    N        0.56742    0.88639    0.81567    1.000
    N4349    N        0.72088    0.97787    0.76458    1.000
    N4350    N        0.62250    0.90733    0.77180    1.000
    N4351    N        0.63633    0.97675    0.76944    1.000
    Si4352   Si       0.70298    0.94281    0.78367    1.000
    N4353    N        0.67815    0.95313    0.81764    1.000
    Si4354   Si       0.63673    0.96929    0.81291    1.000
    N4355    N        0.51100    0.80337    0.84032    1.000
    N4356    N        0.57285    0.79308    0.86702    1.000
    Si4357   Si       0.58846    0.76583    0.83795    1.000
    Si4358   Si       0.52953    0.78353    0.87434    1.000
    N4359    N        0.63393    0.82625    0.86473    1.000
    N4360    N        0.69548    0.78249    0.85919    1.000
    Si4361   Si       0.63719    0.82566    0.82175    1.000
    Si4362   Si       0.49057    0.89073    0.87277    1.000
    Si4363   Si       0.56623    0.89567    0.85869    1.000
    N4364    N        0.56587    0.98158    0.86663    1.000
    N4365    N        0.52683    0.91133    0.86485    1.000
    Si4366   Si       0.60386    0.96104    0.87270    1.000
    N4367    N        0.60534    0.94282    0.82995    1.000
    N4368    N        0.73631    0.94393    0.87028    1.000
    N4369    N        0.70413    0.88493    0.84035    1.000
    Si4370   Si       0.68167    0.97245    0.85702    1.000
    N4371    N        0.71201    0.00422    0.85959    1.000
    N4372    N        0.64067    0.98920    0.85297    1.000
    Si4373   Si       0.70684    0.91069    0.87343    1.000
    N4374    N        0.51668    0.79477    0.91333    1.000
    N4375    N        0.59680    0.81191    0.92739    1.000
    N4376    N        0.57744    0.86363    0.88652    1.000
    Si4377   Si       0.59631    0.82459    0.88611    1.000
    Si4378   Si       0.60909    0.76958    0.92581    1.000
    N4379    N        0.49031    0.84990    0.89150    1.000
    N4380    N        0.68527    0.82858    0.90925    1.000
    N4381    N        0.64209    0.77292    0.89936    1.000
    Si4382   Si       0.66445    0.80439    0.88251    1.000
    Si4383   Si       0.69998    0.85771    0.93497    1.000
    Si4384   Si       0.72573    0.75763    0.88091    1.000
    Si4385   Si       0.59133    0.89246    0.91882    1.000
    N4386    N        0.51956    0.96009    0.91665    1.000
    N4387    N        0.58156    0.92513    0.89089    1.000
    Si4388   Si       0.54456    0.94739    0.88489    1.000
    Si4389   Si       0.65143    0.93715    0.92281    1.000
    N4390    N        0.67322    0.94020    0.88395    1.000
    N4391    N        0.73262    0.98126    0.92815    1.000
    N4392    N        0.71471    0.89072    0.91109    1.000
    N4393    N        0.63291    0.89715    0.93230    1.000
    N4394    N        0.62339    0.96976    0.91417    1.000
    N4395    N        0.54851    0.80810    0.97415    1.000
    Si4396   Si       0.58132    0.83473    0.96202    1.000
    Si4397   Si       0.53905    0.77667    0.94501    1.000
    N4398    N        0.57229    0.88101    0.95583    1.000
    Si4399   Si       0.51244    0.82565    0.99260    1.000
    N4400    N        0.61612    0.84097    0.98670    1.000
    N4401    N        0.70523    0.79796    0.98237    1.000
    N4402    N        0.67789    0.86033    0.97224    1.000
    Si4403   Si       0.63760    0.87604    0.97130    1.000
    Si4404   Si       0.73384    0.88065    0.99302    1.000
    Si4405   Si       0.58972    0.99449    0.98345    1.000
    N4406    N        0.55014    0.99455    0.96962    1.000
    N4407    N        0.52347    0.92882    0.98198    1.000
    Si4408   Si       0.51959    0.96662    0.95888    1.000
    Si4409   Si       0.55161    0.89716    0.99234    1.000
    N4410    N        0.67572    0.94682    0.95808    1.000
    N4411    N        0.71101    0.00184    0.98142    1.000
    Si4412   Si       0.69374    0.98549    0.94702    1.000
    N4413    N        0.78616    0.10767    0.02746    1.000
    Si4414   Si       0.74375    0.10578    0.02048    1.000
    N4415    N        0.78553    0.00439    0.05343    1.000
    N4416    N        0.83223    0.00736    0.00155    1.000
    N4417    N        0.94789    0.10146    0.03749    1.000
    N4418    N        0.95826    0.02157    0.00115    1.000
    N4419    N        0.84245    0.20394    0.02896    1.000
    N4420    N        0.77793    0.18871    0.01565    1.000
    Si4421   Si       0.76211    0.22907    0.02997    1.000
    Si4422   Si       0.81868    0.18531    0.00012    1.000
    N4423    N        0.83573    0.14598    0.00074    1.000
    N4424    N        0.77584    0.25389    0.99731    1.000
    Si4425   Si       0.86466    0.23673    0.04478    1.000
    Si4426   Si       0.93426    0.23348    0.01124    1.000
    N4427    N        0.94530    0.21594    0.04721    1.000
    N4428    N        0.89437    0.25028    0.01926    1.000
    N4429    N        0.89531    0.16145    0.03550    1.000
    Si4430   Si       0.87954    0.14980    0.99756    1.000
    Si4431   Si       0.80179    0.11490    0.06793    1.000
    N4432    N        0.81886    0.07622    0.07649    1.000
    N4433    N        0.77001    0.11739    0.09860    1.000
    Si4434   Si       0.79962    0.03742    0.07795    1.000
    N4435    N        0.76523    0.04484    0.10282    1.000
    N4436    N        0.83431    0.02103    0.09700    1.000
    Si4437   Si       0.74532    0.08258    0.09426    1.000
    Si4438   Si       0.84246    0.06399    0.10951    1.000
    N4439    N        0.96963    0.08931    0.10205    1.000
    N4440    N        0.94126    0.02907    0.07533    1.000
    Si4441   Si       0.96487    0.12123    0.07103    1.000
    Si4442   Si       0.97835    0.04873    0.09131    1.000
    Si4443   Si       0.91334    0.02617    0.10920    1.000
    N4444    N        0.76815    0.24388    0.06961    1.000
    N4445    N        0.83064    0.14593    0.07533    1.000
    Si4446   Si       0.85735    0.17398    0.05447    1.000
    Si4447   Si       0.91945    0.18513    0.06392    1.000
    N4448    N        0.88278    0.20843    0.07693    1.000
    Si4449   Si       0.97746    0.23022    0.07183    1.000
    N4450    N        0.94271    0.15654    0.08665    1.000
    N4451    N        0.82759    0.05826    0.14885    1.000
    N4452    N        0.85072    0.11349    0.13678    1.000
    Si4453   Si       0.75120    0.01865    0.13517    1.000
    Si4454   Si       0.82266    0.09817    0.16590    1.000
    N4455    N        0.78264    0.11312    0.16870    1.000
    Si4456   Si       0.82438    0.02044    0.16651    1.000
    Si4457   Si       0.96006    0.10479    0.14128    1.000
    Si4458   Si       0.88683    0.09229    0.14161    1.000
    N4459    N        0.93477    0.02054    0.14615    1.000
    N4460    N        0.91886    0.11981    0.14621    1.000
    N4461    N        0.88657    0.06156    0.11090    1.000
    Si4462   Si       0.76596    0.14040    0.13710    1.000
    N4463    N        0.79936    0.16782    0.13258    1.000
    Si4464   Si       0.80162    0.21006    0.14297    1.000
    N4465    N        0.76459    0.22846    0.13459    1.000
    Si4466   Si       0.83814    0.15113    0.11921    1.000
    N4467    N        0.82821    0.22649    0.11117    1.000
    N4468    N        0.98368    0.14187    0.14303    1.000
    N4469    N        0.93373    0.18842    0.14390    1.000
    Si4470   Si       0.96616    0.17278    0.11807    1.000
    Si4471   Si       0.93165    0.22770    0.16048    1.000
    N4472    N        0.97334    0.24589    0.15666    1.000
    Si4473   Si       0.87078    0.21897    0.11824    1.000
    N4474    N        0.86785    0.17684    0.13331    1.000
    N4475    N        0.89639    0.24426    0.14331    1.000
    Si4476   Si       0.90353    0.15842    0.15447    1.000
    N4477    N        0.84424    0.02978    0.20694    1.000
    N4478    N        0.84389    0.10105    0.20426    1.000
    Si4479   Si       0.86803    0.06515    0.20805    1.000
    Si4480   Si       0.93574    0.05037    0.17857    1.000
    N4481    N        0.93527    0.03356    0.21804    1.000
    N4482    N        0.89587    0.06801    0.17637    1.000
    N4483    N        0.96886    0.07906    0.17575    1.000
    Si4484   Si       0.77655    0.13428    0.20698    1.000
    N4485    N        0.75254    0.17247    0.20572    1.000
    Si4486   Si       0.78982    0.19311    0.21421    1.000
    N4487    N        0.80482    0.21856    0.18436    1.000
    N4488    N        0.81337    0.15692    0.21214    1.000
    Si4489   Si       0.85468    0.14189    0.21904    1.000
    N4490    N        0.98822    0.22630    0.22628    1.000
    N4491    N        0.92141    0.22309    0.20191    1.000
    Si4492   Si       0.89498    0.25167    0.22012    1.000
    N4493    N        0.88757    0.15351    0.19456    1.000
    N4494    N        0.97316    0.16595    0.21257    1.000
    Si4495   Si       0.95263    0.20068    0.22638    1.000
    N4496    N        0.83299    0.03739    0.27632    1.000
    Si4497   Si       0.75302    0.01464    0.25894    1.000
    Si4498   Si       0.86054    0.06948    0.28348    1.000
    N4499    N        0.76060    0.10622    0.23650    1.000
    N4500    N        0.76461    0.04789    0.28623    1.000
    Si4501   Si       0.82864    0.00912    0.24122    1.000
    Si4502   Si       0.73978    0.07632    0.25779    1.000
    N4503    N        0.91506    0.00970    0.27072    1.000
    N4504    N        0.88530    0.07211    0.24645    1.000
    Si4505   Si       0.92030    0.05118    0.25583    1.000
    N4506    N        0.94859    0.06825    0.28302    1.000
    N4507    N        0.79324    0.21205    0.25304    1.000
    Si4508   Si       0.82666    0.24059    0.25710    1.000
    Si4509   Si       0.77284    0.23413    0.28346    1.000
    N4510    N        0.86117    0.22723    0.23533    1.000
    N4511    N        0.86486    0.15822    0.25982    1.000
    N4512    N        0.97588    0.14804    0.28578    1.000
    N4513    N        0.92533    0.18771    0.25763    1.000
    Si4514   Si       0.88171    0.19732    0.25922    1.000
    Si4515   Si       0.80323    0.03119    0.30490    1.000
    Si4516   Si       0.75387    0.07869    0.31844    1.000
    N4517    N        0.84227    0.10424    0.30285    1.000
    Si4518   Si       0.81644    0.09933    0.33833    1.000
    N4519    N        0.77518    0.11053    0.33650    1.000
    N4520    N        0.80723    0.05425    0.34145    1.000
    N4521    N        0.89042    0.05749    0.31056    1.000
    Si4522   Si       0.92442    0.08586    0.31424    1.000
    N4523    N        0.90965    0.12701    0.30233    1.000
    Si4524   Si       0.89635    0.01524    0.31042    1.000
    N4525    N        0.76033    0.21604    0.32003    1.000
    N4526    N        0.81197    0.25386    0.29543    1.000
    N4527    N        0.93303    0.19195    0.32568    1.000
    Si4528   Si       0.97376    0.19903    0.33357    1.000
    N4529    N        0.86376    0.17107    0.32906    1.000
    Si4530   Si       0.93556    0.16230    0.29220    1.000
    N4531    N        0.88252    0.22623    0.29606    1.000
    Si4532   Si       0.89087    0.20443    0.33359    1.000
    Si4533   Si       0.86788    0.13923    0.29934    1.000
    Si4534   Si       0.77803    0.04833    0.37549    1.000
    N4535    N        0.83748    0.12554    0.36539    1.000
    N4536    N        0.76737    0.00890    0.39566    1.000
    N4537    N        0.74468    0.05147    0.34921    1.000
    Si4538   Si       0.86604    0.13008    0.39553    1.000
    N4539    N        0.90606    0.12844    0.38296    1.000
    N4540    N        0.89650    0.05838    0.38490    1.000
    Si4541   Si       0.92518    0.09096    0.38663    1.000
    Si4542   Si       0.91005    0.01777    0.38354    1.000
    N4543    N        0.94458    0.00991    0.40721    1.000
    N4544    N        0.94813    0.08573    0.35116    1.000
    N4545    N        0.76801    0.25043    0.37663    1.000
    Si4546   Si       0.75687    0.14370    0.35742    1.000
    Si4547   Si       0.83231    0.17170    0.36383    1.000
    N4548    N        0.83026    0.21725    0.36342    1.000
    N4549    N        0.78631    0.17369    0.36492    1.000
    Si4550   Si       0.85712    0.24628    0.38165    1.000
    N4551    N        0.85311    0.17234    0.40395    1.000
    Si4552   Si       0.78764    0.22172    0.35287    1.000
    N4553    N        0.97829    0.24031    0.35042    1.000
    N4554    N        0.89637    0.23687    0.36198    1.000
    Si4555   Si       0.80042    0.05829    0.44157    1.000
    N4556    N        0.83192    0.03856    0.42216    1.000
    N4557    N        0.75435    0.10967    0.46108    1.000
    N4558    N        0.76678    0.03583    0.45928    1.000
    N4559    N        0.77912    0.07639    0.40773    1.000
    N4560    N        0.85986    0.10166    0.42448    1.000
    Si4561   Si       0.73960    0.09369    0.42066    1.000
    Si4562   Si       0.87071    0.05822    0.42174    1.000
    Si4563   Si       0.94233    0.04136    0.44012    1.000
    N4564    N        0.89953    0.03704    0.44889    1.000
    N4565    N        0.95080    0.07875    0.42005    1.000
    Si4566   Si       0.99106    0.10085    0.42013    1.000
    N4567    N        0.97168    0.02449    0.46732    1.000
    N4568    N        0.74174    0.23160    0.44055    1.000
    Si4569   Si       0.84410    0.25336    0.45727    1.000
    N4570    N        0.80984    0.22550    0.46479    1.000
    N4571    N        0.91832    0.18753    0.42550    1.000
    N4572    N        0.97159    0.26107    0.45107    1.000
    N4573    N        0.86748    0.23984    0.42373    1.000
    Si4574   Si       0.87687    0.19663    0.42959    1.000
    N4575    N        0.97929    0.14197    0.41511    1.000
    Si4576   Si       0.95883    0.17764    0.42996    1.000
    N4577    N        0.98730    0.20350    0.40905    1.000
    Si4578   Si       0.78942    0.11516    0.48367    1.000
    Si4579   Si       0.82930    0.05022    0.50964    1.000
    N4580    N        0.81576    0.08005    0.47567    1.000
    N4581    N        0.80211    0.01621    0.51797    1.000
    Si4582   Si       0.84554    0.11001    0.46288    1.000
    N4583    N        0.86866    0.03260    0.50380    1.000
    N4584    N        0.88016    0.10650    0.48865    1.000
    N4585    N        0.96954    0.10784    0.49978    1.000
    Si4586   Si       0.97512    0.01986    0.51240    1.000
    N4587    N        0.93771    0.04252    0.51850    1.000
    Si4588   Si       0.82428    0.18717    0.47958    1.000
    N4589    N        0.74700    0.20946    0.49776    1.000
    Si4590   Si       0.77115    0.23870    0.47334    1.000
    N4591    N        0.81952    0.14356    0.46814    1.000
    N4592    N        0.81059    0.19053    0.52159    1.000
    Si4593   Si       0.96864    0.22552    0.47734    1.000
    N4594    N        0.86608    0.19520    0.47216    1.000
    N4595    N        0.96836    0.18212    0.47334    1.000
    N4596    N        0.98838    0.23641    0.51555    1.000
    N4597    N        0.92410    0.14922    0.52275    1.000
    Si4598   Si       0.96425    0.15003    0.50266    1.000
    Si4599   Si       0.88595    0.22088    0.50154    1.000
    N4600    N        0.92508    0.23177    0.48117    1.000
    N4601    N        0.86614    0.25956    0.49576    1.000
    N4602    N        0.83288    0.06889    0.54775    1.000
    Si4603   Si       0.82136    0.11103    0.55397    1.000
    Si4604   Si       0.76132    0.12880    0.55847    1.000
    Si4605   Si       0.84621    0.04044    0.57837    1.000
    N4606    N        0.78699    0.11800    0.52611    1.000
    Si4607   Si       0.95836    0.07944    0.52964    1.000
    N4608    N        0.96593    0.09741    0.56956    1.000
    N4609    N        0.90488    0.08747    0.55006    1.000
    N4610    N        0.88525    0.02083    0.56721    1.000
    Si4611   Si       0.89682    0.04696    0.53451    1.000
    Si4612   Si       0.92578    0.10539    0.58338    1.000
    Si4613   Si       0.89062    0.12073    0.52799    1.000
    N4614    N        0.98034    0.00963    0.55910    1.000
    N4615    N        0.85255    0.13673    0.54412    1.000
    Si4616   Si       0.84203    0.17822    0.54871    1.000
    N4617    N        0.76634    0.23598    0.55918    1.000
    Si4618   Si       0.76782    0.20053    0.53491    1.000
    N4619    N        0.74769    0.16998    0.55806    1.000
    Si4620   Si       0.98357    0.20761    0.54651    1.000
    N4621    N        0.88022    0.19762    0.53846    1.000
    Si4622   Si       0.91394    0.17683    0.55354    1.000
    N4623    N        0.98820    0.16696    0.53337    1.000
    N4624    N        0.94490    0.20475    0.56645    1.000
    N4625    N        0.91118    0.14635    0.58557    1.000
    N4626    N        0.76198    0.05172    0.61843    1.000
    N4627    N        0.85047    0.06401    0.61352    1.000
    N4628    N        0.79684    0.12881    0.58519    1.000
    N4629    N        0.91646    0.09051    0.62263    1.000
    Si4630   Si       0.87665    0.08666    0.63758    1.000
    N4631    N        0.98667    0.11011    0.63270    1.000
    N4632    N        0.86601    0.12892    0.64014    1.000
    N4633    N        0.83405    0.18394    0.59198    1.000
    N4634    N        0.77181    0.19177    0.61612    1.000
    Si4635   Si       0.80180    0.15986    0.61454    1.000
    Si4636   Si       0.85542    0.20936    0.61836    1.000
    N4637    N        0.85974    0.25179    0.60887    1.000
    N4638    N        0.96672    0.20128    0.63274    1.000
    Si4639   Si       0.89930    0.15264    0.62673    1.000
    Si4640   Si       0.93438    0.21673    0.60874    1.000
    N4641    N        0.89807    0.19686    0.62377    1.000
    Si4642   Si       0.76115    0.04789    0.66170    1.000
    N4643    N        0.76094    0.08833    0.67752    1.000
    N4644    N        0.79117    0.03202    0.68952    1.000
    Si4645   Si       0.77696    0.13017    0.68707    1.000
    N4646    N        0.87933    0.06740    0.67586    1.000
    Si4647   Si       0.88111    0.02553    0.68184    1.000
    N4648    N        0.97721    0.04142    0.65071    1.000
    Si4649   Si       0.94806    0.10406    0.65055    1.000
    N4650    N        0.95075    0.08952    0.69149    1.000
    Si4651   Si       0.98259    0.06042    0.68920    1.000
    N4652    N        0.92283    0.01321    0.68054    1.000
    Si4653   Si       0.84165    0.14156    0.67226    1.000
    N4654    N        0.82796    0.20830    0.65219    1.000
    N4655    N        0.80224    0.14324    0.65461    1.000
    N4656    N        0.75675    0.20994    0.67555    1.000
    Si4657   Si       0.83802    0.21413    0.69531    1.000
    Si4658   Si       0.78550    0.21966    0.64702    1.000
    N4659    N        0.86496    0.17081    0.69627    1.000
    N4660    N        0.80972    0.24943    0.70078    1.000
    N4661    N        0.93270    0.14394    0.65457    1.000
    N4662    N        0.93819    0.19995    0.69627    1.000
    Si4663   Si       0.95858    0.17559    0.66826    1.000
    N4664    N        0.87634    0.23328    0.69872    1.000
    Si4665   Si       0.77456    0.04038    0.73049    1.000
    Si4666   Si       0.81732    0.10427    0.74383    1.000
    N4667    N        0.85718    0.07965    0.75242    1.000
    N4668    N        0.78209    0.13083    0.73079    1.000
    N4669    N        0.79144    0.07039    0.75613    1.000
    N4670    N        0.83611    0.11151    0.70336    1.000
    Si4671   Si       0.86886    0.08472    0.71251    1.000
    N4672    N        0.88748    0.02322    0.72685    1.000
    Si4673   Si       0.93872    0.10550    0.73011    1.000
    N4674    N        0.89877    0.11573    0.72404    1.000
    Si4675   Si       0.93051    0.03087    0.72387    1.000
    N4676    N        0.97696    0.03812    0.72535    1.000
    N4677    N        0.93151    0.06681    0.75621    1.000
    N4678    N        0.81278    0.19342    0.72455    1.000
    Si4679   Si       0.78093    0.22074    0.71445    1.000
    N4680    N        0.76117    0.22271    0.75143    1.000
    N4681    N        0.92644    0.25601    0.73695    1.000
    Si4682   Si       0.86961    0.14536    0.73299    1.000
    Si4683   Si       0.89798    0.19766    0.71019    1.000
    N4684    N        0.96083    0.13701    0.74849    1.000
    Si4685   Si       0.95743    0.23492    0.71432    1.000
    N4686    N        0.89868    0.17650    0.74810    1.000
    Si4687   Si       0.78264    0.07554    0.79976    1.000
    N4688    N        0.75208    0.10653    0.79830    1.000
    Si4689   Si       0.84821    0.12247    0.80511    1.000
    N4690    N        0.82202    0.08935    0.81295    1.000
    N4691    N        0.76354    0.04333    0.82032    1.000
    N4692    N        0.88072    0.03921    0.80439    1.000
    N4693    N        0.88990    0.10472    0.80571    1.000
    N4694    N        0.96785    0.01945    0.79528    1.000
    Si4695   Si       0.97057    0.05464    0.76986    1.000
    Si4696   Si       0.89250    0.07131    0.77725    1.000
    Si4697   Si       0.76067    0.13648    0.76799    1.000
    N4698    N        0.78309    0.16889    0.78847    1.000
    N4699    N        0.83708    0.21350    0.78767    1.000
    Si4700   Si       0.76301    0.24727    0.78778    1.000
    Si4701   Si       0.81678    0.18258    0.76600    1.000
    N4702    N        0.83979    0.14128    0.76575    1.000
    N4703    N        0.74183    0.21450    0.81113    1.000
    Si4704   Si       0.86660    0.24282    0.80349    1.000
    Si4705   Si       0.93717    0.16861    0.76597    1.000
    N4706    N        0.93099    0.16215    0.81001    1.000
    N4707    N        0.90474    0.22467    0.80186    1.000
    Si4708   Si       0.93632    0.24161    0.77711    1.000
    N4709    N        0.95958    0.20857    0.76339    1.000
    Si4710   Si       0.84868    0.05876    0.82817    1.000
    N4711    N        0.82612    0.02239    0.83026    1.000
    Si4712   Si       0.78468    0.01137    0.83885    1.000
    N4713    N        0.85805    0.06871    0.86934    1.000
    N4714    N        0.96119    0.11533    0.84622    1.000
    Si4715   Si       0.92058    0.12477    0.83012    1.000
    Si4716   Si       0.98106    0.01387    0.83615    1.000
    N4717    N        0.90122    0.12729    0.87195    1.000
    Si4718   Si       0.96522    0.08454    0.87554    1.000
    N4719    N        0.85588    0.24467    0.84634    1.000
    N4720    N        0.84517    0.15505    0.83475    1.000
    Si4721   Si       0.77079    0.18367    0.82789    1.000
    Si4722   Si       0.81345    0.24390    0.84612    1.000
    N4723    N        0.79811    0.20301    0.85506    1.000
    Si4724   Si       0.82559    0.17070    0.86881    1.000
    N4725    N        0.74531    0.15346    0.84762    1.000
    N4726    N        0.99273    0.16523    0.87512    1.000
    Si4727   Si       0.88332    0.23675    0.87839    1.000
    Si4728   Si       0.92592    0.19932    0.83055    1.000
    N4729    N        0.96244    0.21937    0.84053    1.000
    N4730    N        0.90431    0.20042    0.86724    1.000
    N4731    N        0.79868    0.07248    0.90776    1.000
    Si4732   Si       0.78752    0.11423    0.91612    1.000
    Si4733   Si       0.83942    0.06191    0.90706    1.000
    Si4734   Si       0.76875    0.04036    0.91584    1.000
    N4735    N        0.74336    0.12471    0.91111    1.000
    N4736    N        0.77442    0.01088    0.88231    1.000
    N4737    N        0.83899    0.02843    0.93516    1.000
    Si4738   Si       0.89184    0.08744    0.88739    1.000
    N4739    N        0.87354    0.08350    0.92711    1.000
    Si4740   Si       0.92955    0.02005    0.89362    1.000
    N4741    N        0.92677    0.06253    0.88331    1.000
    N4742    N        0.97978    0.10488    0.91254    1.000
    N4743    N        0.94239    0.01689    0.93525    1.000
    N4744    N        0.79875    0.14361    0.88821    1.000
    Si4745   Si       0.75769    0.15908    0.88878    1.000
    Si4746   Si       0.77115    0.23622    0.89352    1.000
    N4747    N        0.75347    0.19736    0.90578    1.000
    N4748    N        0.85516    0.17548    0.90307    1.000
    N4749    N        0.77502    0.24940    0.93480    1.000
    N4750    N        0.93300    0.16359    0.91637    1.000
    Si4751   Si       0.89790    0.16643    0.89196    1.000
    N4752    N        0.87316    0.23780    0.92198    1.000
    Si4753   Si       0.97450    0.14798    0.91050    1.000
    Si4754   Si       0.81826    0.03702    0.97199    1.000
    N4755    N        0.77808    0.02834    0.95807    1.000
    N4756    N        0.83240    0.07635    0.98212    1.000
    N4757    N        0.78833    0.12870    0.95623    1.000
    Si4758   Si       0.81073    0.11284    0.99063    1.000
    N4759    N        0.89400    0.04165    0.98123    1.000
    Si4760   Si       0.87399    0.07808    0.96989    1.000
    Si4761   Si       0.93498    0.04203    0.97041    1.000
    N4762    N        0.95075    0.08175    0.96879    1.000
    N4763    N        0.89411    0.11114    0.98759    1.000
    Si4764   Si       0.93790    0.11011    0.99719    1.000
    Si4765   Si       0.74550    0.13319    0.95516    1.000
    N4766    N        0.82185    0.20601    0.96295    1.000
    Si4767   Si       0.80320    0.24369    0.96510    1.000
    Si4768   Si       0.85875    0.19987    0.93893    1.000
    Si4769   Si       0.97113    0.24992    0.96450    1.000
    N4770    N        0.88798    0.17932    0.96543    1.000
    N4771    N        0.94257    0.21741    0.97147    1.000
    Si4772   Si       0.93119    0.17781    0.95710    1.000
    N4773    N        0.94755    0.14958    0.98497    1.000
    N4774    N        0.79488    0.31923    0.02458    1.000
    Si4775   Si       0.75247    0.32891    0.01419    1.000
    N4776    N        0.85842    0.31086    0.01793    1.000
    Si4777   Si       0.88589    0.34249    0.03849    1.000
    N4778    N        0.92032    0.31607    0.02514    1.000
    Si4779   Si       0.95858    0.31230    0.00858    1.000
    N4780    N        0.87702    0.37359    0.01065    1.000
    Si4781   Si       0.89293    0.29118    0.00305    1.000
    N4782    N        0.95883    0.26851    0.00039    1.000
    N4783    N        0.98692    0.31495    0.03964    1.000
    N4784    N        0.76875    0.39876    0.02472    1.000
    N4785    N        0.75208    0.48099    0.04458    1.000
    Si4786   Si       0.79095    0.49321    0.03120    1.000
    N4787    N        0.82843    0.47239    0.04118    1.000
    N4788    N        0.89469    0.44510    0.02591    1.000
    N4789    N        0.98704    0.38183    0.01910    1.000
    Si4790   Si       0.86603    0.41345    0.02459    1.000
    Si4791   Si       0.93252    0.44444    0.00558    1.000
    N4792    N        0.97376    0.44788    0.01984    1.000
    Si4793   Si       0.86894    0.48083    0.02866    1.000
    N4794    N        0.78542    0.36672    0.08459    1.000
    N4795    N        0.85122    0.34191    0.07009    1.000
    N4796    N        0.80096    0.30122    0.09484    1.000
    Si4797   Si       0.83005    0.37464    0.08282    1.000
    N4798    N        0.83725    0.26607    0.05913    1.000
    Si4799   Si       0.75260    0.38103    0.05973    1.000
    Si4800   Si       0.77316    0.33115    0.10832    1.000
    Si4801   Si       0.82628    0.30941    0.05477    1.000
    Si4802   Si       0.80612    0.25675    0.08786    1.000
    N4803    N        0.97506    0.27069    0.08848    1.000
    N4804    N        0.97346    0.36111    0.09287    1.000
    N4805    N        0.90760    0.36366    0.07171    1.000
    Si4806   Si       0.93596    0.37993    0.10035    1.000
    Si4807   Si       0.88167    0.34669    0.10617    1.000
    N4808    N        0.85105    0.47464    0.10287    1.000
    Si4809   Si       0.75006    0.45069    0.07684    1.000
    N4810    N        0.78991    0.44152    0.08567    1.000
    N4811    N        0.84448    0.41004    0.06132    1.000
    Si4812   Si       0.82956    0.44753    0.07623    1.000
    N4813    N        0.94028    0.42026    0.11378    1.000
    N4814    N        0.79685    0.33955    0.14539    1.000
    Si4815   Si       0.82733    0.30890    0.13297    1.000
    N4816    N        0.81969    0.27976    0.16015    1.000
    N4817    N        0.85016    0.37396    0.12180    1.000
    N4818    N        0.86928    0.30930    0.12597    1.000
    Si4819   Si       0.89435    0.28593    0.15477    1.000
    Si4820   Si       0.97130    0.27937    0.12987    1.000
    N4821    N        0.91354    0.36174    0.13330    1.000
    N4822    N        0.93690    0.30039    0.15020    1.000
    N4823    N        0.97650    0.36319    0.16183    1.000
    Si4824   Si       0.93806    0.34355    0.16525    1.000
    N4825    N        0.80499    0.46583    0.15041    1.000
    Si4826   Si       0.84795    0.46407    0.14509    1.000
    Si4827   Si       0.76818    0.48685    0.13558    1.000
    Si4828   Si       0.85334    0.39472    0.16012    1.000
    N4829    N        0.74922    0.50215    0.17236    1.000
    Si4830   Si       0.91986    0.42959    0.14988    1.000
    N4831    N        0.86859    0.49714    0.16455    1.000
    N4832    N        0.87429    0.43056    0.15268    1.000
    Si4833   Si       0.91073    0.50251    0.15550    1.000
    N4834    N        0.93583    0.46713    0.16533    1.000
    N4835    N        0.81025    0.34483    0.21509    1.000
    Si4836   Si       0.79195    0.36364    0.18008    1.000
    N4837    N        0.74938    0.37288    0.18192    1.000
    N4838    N        0.75916    0.26846    0.19584    1.000
    Si4839   Si       0.80130    0.26294    0.19555    1.000
    N4840    N        0.81298    0.27645    0.23310    1.000
    N4841    N        0.86643    0.37339    0.19445    1.000
    N4842    N        0.92894    0.34318    0.20883    1.000
    N4843    N        0.88827    0.28933    0.19843    1.000
    Si4844   Si       0.90135    0.31528    0.22812    1.000
    Si4845   Si       0.73848    0.40412    0.20811    1.000
    N4846    N        0.82296    0.47234    0.21224    1.000
    Si4847   Si       0.79724    0.44349    0.18739    1.000
    N4848    N        0.75561    0.44142    0.19452    1.000
    N4849    N        0.81239    0.40172    0.17661    1.000
    Si4850   Si       0.84456    0.50734    0.19853    1.000
    Si4851   Si       0.90681    0.38344    0.21038    1.000
    N4852    N        0.93348    0.40547    0.18429    1.000
    Si4853   Si       0.95594    0.46758    0.20386    1.000
    N4854    N        0.92085    0.48180    0.22892    1.000
    Si4855   Si       0.97651    0.39860    0.18952    1.000
    N4856    N        0.75232    0.31603    0.24573    1.000
    Si4857   Si       0.79702    0.31497    0.24304    1.000
    N4858    N        0.81169    0.32862    0.28209    1.000
    Si4859   Si       0.84560    0.36489    0.23150    1.000
    Si4860   Si       0.94847    0.29173    0.28058    1.000
    N4861    N        0.87562    0.34105    0.25372    1.000
    N4862    N        0.91290    0.27933    0.25514    1.000
    N4863    N        0.95700    0.33560    0.27315    1.000
    N4864    N        0.98703    0.27445    0.27572    1.000
    Si4865   Si       0.96839    0.34001    0.23105    1.000
    N4866    N        0.75748    0.38886    0.24652    1.000
    Si4867   Si       0.79062    0.40273    0.27217    1.000
    N4868    N        0.79223    0.44617    0.27336    1.000
    N4869    N        0.83285    0.39429    0.26170    1.000
    Si4870   Si       0.82435    0.47198    0.25709    1.000
    N4871    N        0.86253    0.45962    0.26979    1.000
    Si4872   Si       0.92005    0.44485    0.25100    1.000
    N4873    N        0.89759    0.40823    0.24524    1.000
    Si4874   Si       0.86739    0.41626    0.27625    1.000
    N4875    N        0.96008    0.43580    0.23261    1.000
    N4876    N        0.96599    0.40029    0.29012    1.000
    Si4877   Si       0.80178    0.34868    0.32081    1.000
    N4878    N        0.79040    0.30779    0.33494    1.000
    Si4879   Si       0.82166    0.29346    0.30823    1.000
    N4880    N        0.84160    0.35496    0.33562    1.000
    N4881    N        0.86618    0.29820    0.30773    1.000
    Si4882   Si       0.86956    0.33966    0.29801    1.000
    N4883    N        0.93236    0.27599    0.31583    1.000
    N4884    N        0.90551    0.36165    0.31414    1.000
    Si4885   Si       0.94969    0.36266    0.30858    1.000
    N4886    N        0.98195    0.35744    0.34250    1.000
    Si4887   Si       0.89383    0.26711    0.29533    1.000
    N4888    N        0.77897    0.38394    0.31060    1.000
    N4889    N        0.78391    0.47804    0.33453    1.000
    Si4890   Si       0.76465    0.46060    0.30055    1.000
    N4891    N        0.98135    0.45873    0.33664    1.000
    N4892    N        0.87278    0.42295    0.31932    1.000
    N4893    N        0.87844    0.50039    0.33028    1.000
    Si4894   Si       0.88524    0.46470    0.30833    1.000
    N4895    N        0.92428    0.45258    0.29383    1.000
    Si4896   Si       0.95179    0.43238    0.31849    1.000
    Si4897   Si       0.89515    0.39493    0.34212    1.000
    Si4898   Si       0.84107    0.36252    0.37698    1.000
    N4899    N        0.82983    0.28027    0.38256    1.000
    Si4900   Si       0.78720    0.29184    0.37437    1.000
    N4901    N        0.74866    0.31348    0.38799    1.000
    N4902    N        0.80792    0.33565    0.39744    1.000
    N4903    N        0.94319    0.28774    0.38557    1.000
    N4904    N        0.93530    0.35621    0.39575    1.000
    N4905    N        0.86772    0.33924    0.40946    1.000
    Si4906   Si       0.93647    0.25772    0.35513    1.000
    N4907    N        0.83991    0.46448    0.37838    1.000
    Si4908   Si       0.79666    0.48050    0.37834    1.000
    N4909    N        0.76923    0.44909    0.39667    1.000
    N4910    N        0.81570    0.39799    0.38782    1.000
    Si4911   Si       0.85131    0.42589    0.39623    1.000
    Si4912   Si       0.85795    0.50303    0.36869    1.000
    Si4913   Si       0.96084    0.38190    0.37227    1.000
    N4914    N        0.93665    0.40799    0.34802    1.000
    N4915    N        0.87955    0.39456    0.38241    1.000
    N4916    N        0.82390    0.29212    0.45068    1.000
    N4917    N        0.77009    0.33798    0.45479    1.000
    Si4918   Si       0.83728    0.30911    0.41387    1.000
    Si4919   Si       0.76011    0.38094    0.46111    1.000
    Si4920   Si       0.77017    0.34217    0.41141    1.000
    N4921    N        0.75198    0.38170    0.41519    1.000
    N4922    N        0.92487    0.31125    0.44571    1.000
    N4923    N        0.90407    0.37710    0.45319    1.000
    Si4924   Si       0.94978    0.31924    0.41238    1.000
    Si4925   Si       0.89842    0.36811    0.41230    1.000
    Si4926   Si       0.93344    0.27348    0.46722    1.000
    N4927    N        0.79141    0.41149    0.45537    1.000
    Si4928   Si       0.74667    0.47944    0.41608    1.000
    Si4929   Si       0.78174    0.41284    0.41184    1.000
    N4930    N        0.78236    0.50777    0.41395    1.000
    Si4931   Si       0.90312    0.50644    0.44368    1.000
    N4932    N        0.85926    0.43013    0.43835    1.000
    Si4933   Si       0.96411    0.45872    0.45935    1.000
    N4934    N        0.94474    0.48891    0.43650    1.000
    N4935    N        0.76812    0.27962    0.48691    1.000
    Si4936   Si       0.84936    0.35512    0.51556    1.000
    N4937    N        0.81109    0.33231    0.51254    1.000
    Si4938   Si       0.79720    0.31339    0.47727    1.000
    N4939    N        0.74615    0.33778    0.52105    1.000
    Si4940   Si       0.88927    0.29102    0.51564    1.000
    N4941    N        0.93291    0.29156    0.50451    1.000
    N4942    N        0.94136    0.35919    0.50660    1.000
    N4943    N        0.87865    0.32870    0.49752    1.000
    Si4944   Si       0.91463    0.34030    0.47659    1.000
    Si4945   Si       0.95760    0.32127    0.52419    1.000
    Si4946   Si       0.81307    0.41312    0.49095    1.000
    N4947    N        0.80996    0.44991    0.51276    1.000
    Si4948   Si       0.80541    0.49279    0.51251    1.000
    N4949    N        0.85066    0.39350    0.49596    1.000
    N4950    N        0.78856    0.39367    0.52289    1.000
    N4951    N        0.96040    0.47772    0.49955    1.000
    N4952    N        0.89055    0.49624    0.48536    1.000
    Si4953   Si       0.94193    0.40274    0.50188    1.000
    N4954    N        0.96870    0.41636    0.47035    1.000
    Si4955   Si       0.91620    0.46984    0.51021    1.000
    Si4956   Si       0.88032    0.40938    0.46906    1.000
    N4957    N        0.90677    0.43028    0.49758    1.000
    Si4958   Si       0.78241    0.35357    0.53696    1.000
    N4959    N        0.85621    0.36094    0.55769    1.000
    N4960    N        0.77057    0.36007    0.57891    1.000
    Si4961   Si       0.86199    0.32381    0.58049    1.000
    N4962    N        0.87892    0.29168    0.55713    1.000
    N4963    N        0.95131    0.31325    0.56590    1.000
    Si4964   Si       0.74267    0.48291    0.54669    1.000
    Si4965   Si       0.79586    0.42936    0.54929    1.000
    N4966    N        0.76465    0.45141    0.56765    1.000
    N4967    N        0.82541    0.42637    0.58108    1.000
    Si4968   Si       0.85645    0.39471    0.58623    1.000
    Si4969   Si       0.93699    0.41313    0.57403    1.000
    N4970    N        0.91863    0.47918    0.55147    1.000
    Si4971   Si       0.98455    0.45524    0.52847    1.000
    N4972    N        0.95917    0.42223    0.53796    1.000
    N4973    N        0.89250    0.41840    0.57802    1.000
    Si4974   Si       0.80186    0.34694    0.60747    1.000
    Si4975   Si       0.82822    0.27824    0.62529    1.000
    N4976    N        0.82268    0.30909    0.59424    1.000
    Si4977   Si       0.75944    0.29121    0.63351    1.000
    N4978    N        0.83567    0.37347    0.62079    1.000
    N4979    N        0.77745    0.33002    0.63739    1.000
    N4980    N        0.79000    0.26021    0.63322    1.000
    N4981    N        0.95996    0.31359    0.63343    1.000
    N4982    N        0.88804    0.31392    0.61110    1.000
    Si4983   Si       0.96492    0.28906    0.59818    1.000
    Si4984   Si       0.95982    0.35415    0.61925    1.000
    Si4985   Si       0.89427    0.27534    0.59353    1.000
    N4986    N        0.93977    0.37310    0.58857    1.000
    N4987    N        0.93298    0.25920    0.60526    1.000
    N4988    N        0.75265    0.40881    0.62103    1.000
    Si4989   Si       0.76199    0.44862    0.61029    1.000
    Si4990   Si       0.83582    0.45445    0.61438    1.000
    N4991    N        0.79698    0.46430    0.63027    1.000
    Si4992   Si       0.90285    0.46125    0.58902    1.000
    N4993    N        0.94355    0.44558    0.60376    1.000
    N4994    N        0.86577    0.48032    0.59805    1.000
    Si4995   Si       0.96895    0.48025    0.59869    1.000
    Si4996   Si       0.76845    0.33200    0.68004    1.000
    N4997    N        0.84439    0.29871    0.66062    1.000
    N4998    N        0.74535    0.29550    0.67536    1.000
    Si4999   Si       0.82421    0.29091    0.69940    1.000
    N5000    N        0.74356    0.36751    0.68650    1.000
    N5001    N        0.88413    0.35940    0.66880    1.000
    Si5002   Si       0.88295    0.31762    0.65469    1.000
    N5003    N        0.91111    0.29427    0.67913    1.000
    Si5004   Si       0.95357    0.30002    0.67295    1.000
    Si5005   Si       0.95911    0.36885    0.69352    1.000
    N5006    N        0.97403    0.26309    0.68503    1.000
    N5007    N        0.97220    0.32637    0.69984    1.000
    N5008    N        0.95130    0.38205    0.65311    1.000
    Si5009   Si       0.85307    0.39030    0.65912    1.000
    N5010    N        0.83544    0.49827    0.66694    1.000
    Si5011   Si       0.85207    0.46261    0.68225    1.000
    Si5012   Si       0.79099    0.49221    0.66302    1.000
    N5013    N        0.76269    0.47866    0.69332    1.000
    N5014    N        0.85447    0.43461    0.64901    1.000
    N5015    N        0.84524    0.39193    0.70169    1.000
    N5016    N        0.95803    0.45036    0.67997    1.000
    Si5017   Si       0.92932    0.47990    0.69447    1.000
    Si5018   Si       0.95701    0.42409    0.64244    1.000
    N5019    N        0.75302    0.34366    0.75087    1.000
    Si5020   Si       0.79743    0.34716    0.74615    1.000
    N5021    N        0.80040    0.32668    0.70749    1.000
    N5022    N        0.85986    0.29301    0.72507    1.000
    Si5023   Si       0.85869    0.31587    0.76233    1.000
    N5024    N        0.87116    0.35746    0.75295    1.000
    Si5025   Si       0.88258    0.36915    0.71149    1.000
    Si5026   Si       0.89506    0.26983    0.71048    1.000
    N5027    N        0.92485    0.37496    0.71981    1.000
    Si5028   Si       0.93645    0.36581    0.75890    1.000
    Si5029   Si       0.78419    0.47262    0.72971    1.000
    Si5030   Si       0.83081    0.41451    0.73393    1.000
    N5031    N        0.82227    0.45372    0.71518    1.000
    N5032    N        0.80072    0.39172    0.75390    1.000
    N5033    N        0.76037    0.45059    0.75936    1.000
    N5034    N        0.86367    0.42399    0.75850    1.000
    N5035    N        0.88974    0.46657    0.70656    1.000
    Si5036   Si       0.88234    0.46099    0.74977    1.000
    N5037    N        0.94999    0.49861    0.72805    1.000
    N5038    N        0.98723    0.44509    0.75212    1.000
    Si5039   Si       0.99185    0.43743    0.70800    1.000
    N5040    N        0.81761    0.32304    0.77392    1.000
    Si5041   Si       0.80296    0.30749    0.81200    1.000
    N5042    N        0.79387    0.26527    0.81321    1.000
    N5043    N        0.76661    0.32898    0.81459    1.000
    Si5044   Si       0.73853    0.31828    0.78284    1.000
    Si5045   Si       0.74031    0.36369    0.82203    1.000
    N5046    N        0.87402    0.28422    0.79051    1.000
    N5047    N        0.92891    0.32664    0.77551    1.000
    N5048    N        0.94742    0.27506    0.80391    1.000
    Si5049   Si       0.91040    0.30120    0.80461    1.000
    Si5050   Si       0.97218    0.31322    0.78610    1.000
    N5051    N        0.98025    0.35860    0.76374    1.000
    N5052    N        0.73766    0.39920    0.79650    1.000
    N5053    N        0.74037    0.49327    0.80474    1.000
    Si5054   Si       0.77510    0.41696    0.78287    1.000
    N5055    N        0.85750    0.38170    0.81862    1.000
    N5056    N        0.97781    0.49906    0.79631    1.000
    N5057    N        0.98594    0.40605    0.81365    1.000
    Si5058   Si       0.87708    0.38974    0.78086    1.000
    N5059    N        0.86388    0.49878    0.76536    1.000
    Si5060   Si       0.90219    0.50552    0.78732    1.000
    N5061    N        0.91785    0.46741    0.77509    1.000
    N5062    N        0.92050    0.39362    0.78789    1.000
    Si5063   Si       0.95928    0.47699    0.76355    1.000
    N5064    N        0.82479    0.32290    0.84732    1.000
    N5065    N        0.75252    0.37905    0.85999    1.000
    Si5066   Si       0.86209    0.34533    0.84250    1.000
    N5067    N        0.98608    0.28118    0.85985    1.000
    N5068    N        0.89762    0.32203    0.83982    1.000
    N5069    N        0.94626    0.37546    0.85169    1.000
    N5070    N        0.91471    0.26533    0.86762    1.000
    Si5071   Si       0.95254    0.26008    0.84604    1.000
    Si5072   Si       0.98807    0.36973    0.83704    1.000
    Si5073   Si       0.76314    0.42210    0.85385    1.000
    Si5074   Si       0.83658    0.41832    0.83618    1.000
    N5075    N        0.79433    0.42351    0.82252    1.000
    N5076    N        0.86155    0.45145    0.82549    1.000
    N5077    N        0.81598    0.49221    0.87364    1.000
    N5078    N        0.92896    0.44184    0.84511    1.000
    Si5079   Si       0.94325    0.40849    0.82204    1.000
    Si5080   Si       0.89522    0.46912    0.84592    1.000
    N5081    N        0.78783    0.33103    0.90757    1.000
    Si5082   Si       0.74870    0.34699    0.88923    1.000
    Si5083   Si       0.81778    0.30610    0.88782    1.000
    N5084    N        0.85943    0.30029    0.90187    1.000
    N5085    N        0.79943    0.26681    0.87948    1.000
    N5086    N        0.92763    0.32913    0.90369    1.000
    Si5087   Si       0.92041    0.36690    0.88551    1.000
    N5088    N        0.96648    0.27727    0.93289    1.000
    N5089    N        0.87597    0.36420    0.88114    1.000
    Si5090   Si       0.89917    0.30607    0.87976    1.000
    Si5091   Si       0.86783    0.27720    0.93964    1.000
    Si5092   Si       0.85115    0.38801    0.90672    1.000
    Si5093   Si       0.84162    0.46335    0.89016    1.000
    N5094    N        0.75693    0.48939    0.92191    1.000
    N5095    N        0.77310    0.42844    0.89663    1.000
    Si5096   Si       0.79742    0.42568    0.93071    1.000
    N5097    N        0.81378    0.38811    0.92868    1.000
    N5098    N        0.82768    0.45608    0.93285    1.000
    Si5099   Si       0.73846    0.45522    0.90073    1.000
    N5100    N        0.83989    0.42106    0.87895    1.000
    Si5101   Si       0.90598    0.48490    0.92171    1.000
    Si5102   Si       0.98119    0.49640    0.92392    1.000
    N5103    N        0.92722    0.40568    0.90416    1.000
    N5104    N        0.94484    0.47900    0.90668    1.000
    N5105    N        0.88241    0.47957    0.88615    1.000
    Si5106   Si       0.94646    0.43889    0.88397    1.000
    N5107    N        0.82662    0.34133    0.96831    1.000
    N5108    N        0.83470    0.27345    0.96639    1.000
    N5109    N        0.75808    0.35433    0.97630    1.000
    Si5110   Si       0.79274    0.35152    0.94414    1.000
    Si5111   Si       0.85109    0.37681    0.97372    1.000
    Si5112   Si       0.74309    0.26966    0.96736    1.000
    Si5113   Si       0.82165    0.30640    0.99229    1.000
    N5114    N        0.90171    0.29461    0.95936    1.000
    N5115    N        0.95675    0.33826    0.97120    1.000
    Si5116   Si       0.93845    0.31044    0.94262    1.000
    Si5117   Si       0.96933    0.37895    0.97872    1.000
    N5118    N        0.84076    0.41560    0.98901    1.000
    N5119    N        0.79139    0.49222    0.98831    1.000
    Si5120   Si       0.76226    0.47410    0.96332    1.000
    N5121    N        0.76815    0.43171    0.96279    1.000
    Si5122   Si       0.85469    0.44920    0.96561    1.000
    Si5123   Si       0.75016    0.39841    0.98782    1.000
    N5124    N        0.86432    0.48924    0.98695    1.000
    N5125    N        0.93415    0.48585    0.99040    1.000
    N5126    N        0.87618    0.38664    0.94144    1.000
    N5127    N        0.89343    0.45215    0.94611    1.000
    Si5128   Si       0.91077    0.41112    0.94459    1.000
    N5129    N        0.93631    0.40860    0.97852    1.000
    Si5130   Si       0.97868    0.48301    0.99158    1.000
    Si5131   Si       0.81423    0.56800    0.02954    1.000
    N5132    N        0.78751    0.59889    0.01403    1.000
    N5133    N        0.79666    0.53312    0.04673    1.000
    N5134    N        0.85191    0.57677    0.05099    1.000
    Si5135   Si       0.77064    0.61709    0.04990    1.000
    N5136    N        0.91512    0.61789    0.01981    1.000
    Si5137   Si       0.88816    0.55636    0.04301    1.000
    N5138    N        0.90346    0.55335    0.00240    1.000
    N5139    N        0.96825    0.57490    0.00275    1.000
    N5140    N        0.88305    0.51479    0.05350    1.000
    N5141    N        0.85283    0.66280    0.04164    1.000
    Si5142   Si       0.78294    0.74620    0.03331    1.000
    Si5143   Si       0.81375    0.67304    0.02119    1.000
    N5144    N        0.80228    0.71462    0.01191    1.000
    N5145    N        0.78616    0.65816    0.05237    1.000
    Si5146   Si       0.89160    0.65528    0.02123    1.000
    Si5147   Si       0.95560    0.70233    0.02984    1.000
    N5148    N        0.91590    0.68635    0.04122    1.000
    N5149    N        0.98514    0.67691    0.04775    1.000
    N5150    N        0.96073    0.74319    0.04277    1.000
    N5151    N        0.88356    0.75266    0.99682    1.000
    N5152    N        0.79423    0.58744    0.07618    1.000
    Si5153   Si       0.77703    0.54623    0.08154    1.000
    Si5154   Si       0.83805    0.58464    0.09024    1.000
    N5155    N        0.84600    0.54528    0.10991    1.000
    Si5156   Si       0.93128    0.61134    0.06015    1.000
    N5157    N        0.91861    0.57089    0.07042    1.000
    N5158    N        0.97694    0.61040    0.06615    1.000
    N5159    N        0.97477    0.54555    0.10423    1.000
    Si5160   Si       0.87277    0.51232    0.09753    1.000
    Si5161   Si       0.93312    0.55360    0.10501    1.000
    Si5162   Si       0.77262    0.69034    0.07708    1.000
    N5163    N        0.81073    0.70767    0.08550    1.000
    Si5164   Si       0.83963    0.67251    0.08402    1.000
    Si5165   Si       0.81173    0.75055    0.09472    1.000
    N5166    N        0.75479    0.72466    0.05835    1.000
    N5167    N        0.75701    0.68245    0.11427    1.000
    N5168    N        0.93565    0.71564    0.10025    1.000
    N5169    N        0.87241    0.69225    0.10634    1.000
    Si5170   Si       0.93887    0.75267    0.07827    1.000
    Si5171   Si       0.90894    0.68320    0.08352    1.000
    N5172    N        0.91388    0.64008    0.08796    1.000
    N5173    N        0.80302    0.58535    0.14206    1.000
    Si5174   Si       0.81276    0.54364    0.13694    1.000
    Si5175   Si       0.76297    0.60410    0.15196    1.000
    Si5176   Si       0.83064    0.62009    0.14677    1.000
    N5177    N        0.78418    0.52137    0.11523    1.000
    N5178    N        0.86218    0.60693    0.11940    1.000
    N5179    N        0.92738    0.58250    0.13700    1.000
    Si5180   Si       0.90501    0.61723    0.12388    1.000
    N5181    N        0.91262    0.51682    0.11450    1.000
    N5182    N        0.81551    0.71287    0.15250    1.000
    Si5183   Si       0.79181    0.67759    0.14109    1.000
    Si5184   Si       0.85613    0.71937    0.13532    1.000
    Si5185   Si       0.78456    0.74260    0.15951    1.000
    N5186    N        0.74947    0.72002    0.16617    1.000
    N5187    N        0.81869    0.65205    0.11743    1.000
    N5188    N        0.77969    0.64359    0.16749    1.000
    N5189    N        0.95018    0.69639    0.17021    1.000
    Si5190   Si       0.96279    0.70205    0.12915    1.000
    N5191    N        0.97963    0.66254    0.11718    1.000
    N5192    N        0.90609    0.63987    0.16087    1.000
    N5193    N        0.88249    0.72571    0.16996    1.000
    Si5194   Si       0.76804    0.53501    0.19114    1.000
    N5195    N        0.84645    0.61679    0.18851    1.000
    N5196    N        0.81018    0.53061    0.17886    1.000
    N5197    N        0.74905    0.57247    0.18064    1.000
    Si5198   Si       0.82607    0.60717    0.22740    1.000
    N5199    N        0.98348    0.56495    0.18620    1.000
    N5200    N        0.91576    0.59211    0.20794    1.000
    N5201    N        0.92549    0.53136    0.18352    1.000
    Si5202   Si       0.88808    0.62299    0.19639    1.000
    Si5203   Si       0.91368    0.52307    0.22442    1.000
    Si5204   Si       0.93967    0.57093    0.17584    1.000
    N5205    N        0.87027    0.52558    0.22899    1.000
    Si5206   Si       0.74957    0.72715    0.21219    1.000
    Si5207   Si       0.76864    0.65490    0.20798    1.000
    N5208    N        0.77832    0.69444    0.22111    1.000
    Si5209   Si       0.87004    0.72849    0.21168    1.000
    N5210    N        0.97443    0.63485    0.18085    1.000
    Si5211   Si       0.93784    0.65853    0.18835    1.000
    N5212    N        0.91322    0.72944    0.22723    1.000
    N5213    N        0.90623    0.65468    0.22102    1.000
    Si5214   Si       0.92752    0.73325    0.18533    1.000
    Si5215   Si       0.84816    0.54102    0.26127    1.000
    Si5216   Si       0.78923    0.54135    0.26521    1.000
    N5217    N        0.81855    0.56902    0.24523    1.000
    N5218    N        0.76095    0.53322    0.23507    1.000
    N5219    N        0.81917    0.51125    0.27539    1.000
    N5220    N        0.86021    0.61991    0.25267    1.000
    N5221    N        0.93718    0.54654    0.25287    1.000
    Si5222   Si       0.93495    0.59080    0.24902    1.000
    N5223    N        0.97826    0.60556    0.24224    1.000
    N5224    N        0.92634    0.61033    0.28673    1.000
    Si5225   Si       0.96268    0.53707    0.28459    1.000
    N5226    N        0.79218    0.63201    0.23470    1.000
    N5227    N        0.74448    0.64142    0.28264    1.000
    Si5228   Si       0.78706    0.64189    0.27683    1.000
    Si5229   Si       0.81019    0.70482    0.24785    1.000
    N5230    N        0.80291    0.74113    0.27437    1.000
    N5231    N        0.80902    0.67973    0.28282    1.000
    N5232    N        0.74160    0.73426    0.25681    1.000
    N5233    N        0.84955    0.69654    0.23098    1.000
    Si5234   Si       0.93118    0.73877    0.26519    1.000
    Si5235   Si       0.87283    0.66149    0.24851    1.000
    N5236    N        0.97215    0.75204    0.26178    1.000
    N5237    N        0.88965    0.66994    0.28729    1.000
    Si5238   Si       0.78720    0.58784    0.32319    1.000
    N5239    N        0.77680    0.54640    0.30732    1.000
    N5240    N        0.81067    0.61174    0.29792    1.000
    N5241    N        0.74740    0.59958    0.33797    1.000
    Si5242   Si       0.80444    0.51479    0.32053    1.000
    Si5243   Si       0.85284    0.60304    0.29136    1.000
    N5244    N        0.86570    0.56121    0.29358    1.000
    N5245    N        0.87033    0.62054    0.32755    1.000
    Si5246   Si       0.89337    0.54072    0.32290    1.000
    N5247    N        0.93650    0.54207    0.32051    1.000
    Si5248   Si       0.97375    0.56042    0.33526    1.000
    N5249    N        0.98867    0.57199    0.29647    1.000
    N5250    N        0.76885    0.69688    0.33525    1.000
    Si5251   Si       0.80029    0.71266    0.31046    1.000
    N5252    N        0.82012    0.73508    0.34212    1.000
    N5253    N        0.93511    0.65587    0.34405    1.000
    Si5254   Si       0.95825    0.72698    0.33786    1.000
    N5255    N        0.93084    0.72056    0.30524    1.000
    Si5256   Si       0.90775    0.63902    0.31303    1.000
    Si5257   Si       0.97508    0.64024    0.34703    1.000
    Si5258   Si       0.88930    0.70577    0.30893    1.000
    N5259    N        0.87154    0.73813    0.28728    1.000
    Si5260   Si       0.79994    0.55221    0.38872    1.000
    N5261    N        0.81204    0.58336    0.35864    1.000
    N5262    N        0.85148    0.61863    0.39646    1.000
    N5263    N        0.81841    0.52042    0.36373    1.000
    Si5264   Si       0.85464    0.59507    0.35952    1.000
    N5265    N        0.76010    0.56929    0.40229    1.000
    N5266    N        0.87997    0.55857    0.36183    1.000
    Si5267   Si       0.95434    0.58734    0.39409    1.000
    N5268    N        0.94719    0.54572    0.39488    1.000
    N5269    N        0.96629    0.59793    0.35397    1.000
    Si5270   Si       0.90266    0.55149    0.39888    1.000
    N5271    N        0.88730    0.50778    0.40206    1.000
    Si5272   Si       0.78492    0.71416    0.37520    1.000
    N5273    N        0.74795    0.69833    0.39452    1.000
    N5274    N        0.82156    0.69931    0.39674    1.000
    Si5275   Si       0.85068    0.72551    0.37152    1.000
    N5276    N        0.85801    0.75978    0.39838    1.000
    Si5277   Si       0.91502    0.68227    0.37073    1.000
    N5278    N        0.94027    0.71735    0.37856    1.000
    N5279    N        0.88114    0.70256    0.35255    1.000
    N5280    N        0.82466    0.55907    0.42471    1.000
    Si5281   Si       0.79749    0.53071    0.44735    1.000
    Si5282   Si       0.83720    0.59957    0.43220    1.000
    N5283    N        0.81153    0.62078    0.45806    1.000
    Si5284   Si       0.74694    0.57915    0.44476    1.000
    N5285    N        0.74367    0.62106    0.45924    1.000
    Si5286   Si       0.97047    0.52417    0.42719    1.000
    N5287    N        0.90363    0.54958    0.44541    1.000
    Si5288   Si       0.88983    0.62708    0.41719    1.000
    N5289    N        0.98199    0.60190    0.42433    1.000
    N5290    N        0.87417    0.61145    0.45751    1.000
    N5291    N        0.97429    0.54692    0.46315    1.000
    Si5292   Si       0.97425    0.59121    0.46631    1.000
    N5293    N        0.91429    0.59670    0.40129    1.000
    N5294    N        0.75387    0.74385    0.44379    1.000
    Si5295   Si       0.74870    0.70033    0.43734    1.000
    N5296    N        0.82684    0.73451    0.45339    1.000
    N5297    N        0.78511    0.68107    0.45205    1.000
    Si5298   Si       0.82453    0.69454    0.43885    1.000
    N5299    N        0.85719    0.67522    0.45878    1.000
    Si5300   Si       0.86184    0.75572    0.44059    1.000
    Si5301   Si       0.93161    0.74079    0.41610    1.000
    N5302    N        0.90543    0.66613    0.41204    1.000
    N5303    N        0.89690    0.72900    0.43980    1.000
    N5304    N        0.96037    0.72767    0.44838    1.000
    Si5305   Si       0.89811    0.68676    0.45025    1.000
    Si5306   Si       0.75877    0.54948    0.51417    1.000
    N5307    N        0.82326    0.51224    0.47632    1.000
    N5308    N        0.77024    0.55448    0.47165    1.000
    N5309    N        0.76761    0.50671    0.52161    1.000
    Si5310   Si       0.85973    0.52253    0.49947    1.000
    N5311    N        0.87557    0.56151    0.50721    1.000
    N5312    N        0.93634    0.60096    0.49243    1.000
    Si5313   Si       0.97274    0.52198    0.50000    1.000
    Si5314   Si       0.90028    0.58091    0.47592    1.000
    Si5315   Si       0.84665    0.63999    0.48250    1.000
    N5316    N        0.74618    0.66169    0.50623    1.000
    N5317    N        0.80749    0.64493    0.51396    1.000
    Si5318   Si       0.77910    0.64587    0.47614    1.000
    Si5319   Si       0.91617    0.64035    0.50912    1.000
    N5320    N        0.92716    0.67057    0.47981    1.000
    Si5321   Si       0.96475    0.69540    0.47746    1.000
    N5322    N        0.96872    0.71515    0.51830    1.000
    N5323    N        0.84240    0.59535    0.55874    1.000
    N5324    N        0.77398    0.57325    0.54747    1.000
    Si5325   Si       0.75031    0.60291    0.57388    1.000
    Si5326   Si       0.85416    0.51405    0.57469    1.000
    Si5327   Si       0.80840    0.57395    0.57670    1.000
    N5328    N        0.83810    0.50877    0.53499    1.000
    N5329    N        0.98071    0.60022    0.55560    1.000
    Si5330   Si       0.87882    0.57752    0.54839    1.000
    N5331    N        0.88754    0.53857    0.56649    1.000
    N5332    N        0.91457    0.59913    0.55686    1.000
    Si5333   Si       0.92681    0.52005    0.56212    1.000
    Si5334   Si       0.94872    0.58510    0.53236    1.000
    N5335    N        0.94735    0.54134    0.52938    1.000
    Si5336   Si       0.83858    0.63783    0.54523    1.000
    Si5337   Si       0.77666    0.66549    0.53756    1.000
    Si5338   Si       0.81734    0.70370    0.57132    1.000
    N5339    N        0.78638    0.70771    0.53928    1.000
    N5340    N        0.74469    0.64699    0.56737    1.000
    N5341    N        0.81668    0.65871    0.57696    1.000
    Si5342   Si       0.76821    0.74551    0.52822    1.000
    N5343    N        0.85889    0.70883    0.56326    1.000
    Si5344   Si       0.92853    0.63117    0.58141    1.000
    N5345    N        0.93265    0.65864    0.54403    1.000
    N5346    N        0.92033    0.71800    0.56270    1.000
    Si5347   Si       0.89285    0.68100    0.55789    1.000
    Si5348   Si       0.88624    0.74371    0.56127    1.000
    Si5349   Si       0.95808    0.69303    0.55306    1.000
    N5350    N        0.87321    0.64764    0.52138    1.000
    N5351    N        0.82660    0.53942    0.59746    1.000
    N5352    N        0.78657    0.60271    0.60076    1.000
    N5353    N        0.84413    0.62345    0.63545    1.000
    N5354    N        0.94438    0.51640    0.60052    1.000
    Si5355   Si       0.94726    0.53797    0.63815    1.000
    N5356    N        0.95804    0.63106    0.61479    1.000
    Si5357   Si       0.80871    0.63710    0.61473    1.000
    Si5358   Si       0.75991    0.74147    0.60349    1.000
    N5359    N        0.79868    0.72327    0.60473    1.000
    N5360    N        0.78360    0.66186    0.63858    1.000
    Si5361   Si       0.80968    0.69949    0.64077    1.000
    N5362    N        0.85296    0.69038    0.64145    1.000
    Si5363   Si       0.87504    0.65316    0.63155    1.000
    N5364    N        0.89541    0.65597    0.59347    1.000
    N5365    N        0.79678    0.59667    0.67487    1.000
    Si5366   Si       0.84147    0.59882    0.67094    1.000
    Si5367   Si       0.76424    0.56726    0.66829    1.000
    N5368    N        0.78740    0.53339    0.65375    1.000
    N5369    N        0.85626    0.55934    0.66081    1.000
    Si5370   Si       0.82946    0.53351    0.64065    1.000
    Si5371   Si       0.89811    0.55202    0.67272    1.000
    N5372    N        0.96768    0.60887    0.68553    1.000
    Si5373   Si       0.94029    0.61498    0.65200    1.000
    N5374    N        0.92164    0.51453    0.66666    1.000
    N5375    N        0.98651    0.54835    0.65120    1.000
    N5376    N        0.92499    0.57478    0.64569    1.000
    N5377    N        0.74645    0.63565    0.69422    1.000
    N5378    N        0.79952    0.72471    0.67315    1.000
    Si5379   Si       0.74659    0.66328    0.66103    1.000
    N5380    N        0.85270    0.75829    0.65463    1.000
    N5381    N        0.97627    0.73565    0.65880    1.000
    N5382    N        0.90752    0.64452    0.65921    1.000
    Si5383   Si       0.93694    0.74367    0.67369    1.000
    N5384    N        0.90854    0.71119    0.67481    1.000
    Si5385   Si       0.86699    0.71993    0.66987    1.000
    Si5386   Si       0.91782    0.67197    0.69130    1.000
    N5387    N        0.96153    0.67162    0.69436    1.000
    N5388    N        0.78628    0.60464    0.74253    1.000
    Si5389   Si       0.74974    0.57968    0.74666    1.000
    N5390    N        0.74376    0.55754    0.70808    1.000
    Si5391   Si       0.78630    0.62596    0.70495    1.000
    N5392    N        0.79237    0.51124    0.74838    1.000
    N5393    N        0.85953    0.60936    0.70859    1.000
    N5394    N        0.84333    0.56339    0.75679    1.000
    N5395    N        0.97895    0.55544    0.72349    1.000
    Si5396   Si       0.94141    0.54012    0.73236    1.000
    N5397    N        0.90669    0.55790    0.71494    1.000
    Si5398   Si       0.88014    0.58261    0.73550    1.000
    N5399    N        0.77575    0.70476    0.73778    1.000
    Si5400   Si       0.85387    0.64950    0.72612    1.000
    N5401    N        0.84980    0.71356    0.71173    1.000
    Si5402   Si       0.80916    0.70245    0.71096    1.000
    N5403    N        0.81423    0.65946    0.70630    1.000
    Si5404   Si       0.73768    0.72130    0.71985    1.000
    N5405    N        0.94495    0.75072    0.71442    1.000
    Si5406   Si       0.90393    0.69823    0.75741    1.000
    N5407    N        0.94669    0.69754    0.75682    1.000
    Si5408   Si       0.98312    0.63861    0.71301    1.000
    Si5409   Si       0.97341    0.72514    0.73658    1.000
    N5410    N        0.98085    0.63499    0.75610    1.000
    N5411    N        0.89327    0.66572    0.72766    1.000
    N5412    N        0.75579    0.56105    0.78509    1.000
    N5413    N        0.80681    0.52128    0.80679    1.000
    Si5414   Si       0.76951    0.51945    0.78430    1.000
    N5415    N        0.80711    0.59935    0.81065    1.000
    Si5416   Si       0.82114    0.59847    0.76671    1.000
    Si5417   Si       0.83078    0.52417    0.76871    1.000
    Si5418   Si       0.76230    0.59475    0.81127    1.000
    N5419    N        0.93163    0.53436    0.77638    1.000
    Si5420   Si       0.90868    0.61419    0.80795    1.000
    Si5421   Si       0.96113    0.53855    0.80871    1.000
    N5422    N        0.90242    0.60247    0.76752    1.000
    N5423    N        0.98567    0.56927    0.78982    1.000
    N5424    N        0.84027    0.63620    0.76437    1.000
    Si5425   Si       0.84714    0.65837    0.80148    1.000
    N5426    N        0.74669    0.71210    0.80231    1.000
    N5427    N        0.81542    0.68922    0.80009    1.000
    Si5428   Si       0.78476    0.71205    0.78067    1.000
    N5429    N        0.80014    0.75288    0.77532    1.000
    N5430    N        0.89772    0.74133    0.76576    1.000
    N5431    N        0.88275    0.68343    0.79441    1.000
    Si5432   Si       0.89510    0.74367    0.80933    1.000
    N5433    N        0.93735    0.64835    0.80841    1.000
    Si5434   Si       0.96627    0.66847    0.78199    1.000
    N5435    N        0.85095    0.55654    0.84776    1.000
    Si5436   Si       0.83628    0.59696    0.84040    1.000
    Si5437   Si       0.81855    0.52918    0.84930    1.000
    N5438    N        0.74729    0.59400    0.85220    1.000
    N5439    N        0.78457    0.54259    0.87248    1.000
    N5440    N        0.82920    0.61727    0.87723    1.000
    Si5441   Si       0.74458    0.55610    0.87315    1.000
    N5442    N        0.89929    0.50951    0.82839    1.000
    N5443    N        0.86845    0.62677    0.82856    1.000
    Si5444   Si       0.89334    0.54756    0.84869    1.000
    N5445    N        0.97037    0.54221    0.85314    1.000
    Si5446   Si       0.94542    0.57451    0.86439    1.000
    N5447    N        0.92048    0.57819    0.82899    1.000
    Si5448   Si       0.82887    0.71110    0.83439    1.000
    Si5449   Si       0.75822    0.70382    0.84411    1.000
    N5450    N        0.79193    0.73031    0.85218    1.000
    N5451    N        0.76872    0.66226    0.85426    1.000
    N5452    N        0.83572    0.67897    0.86070    1.000
    Si5453   Si       0.80222    0.65634    0.87843    1.000
    N5454    N        0.85299    0.74358    0.82261    1.000
    Si5455   Si       0.86465    0.64765    0.86993    1.000
    Si5456   Si       0.95512    0.73281    0.85751    1.000
    N5457    N        0.90453    0.66702    0.86758    1.000
    N5458    N        0.92696    0.71876    0.82699    1.000
    Si5459   Si       0.91168    0.67902    0.82581    1.000
    Si5460   Si       0.83732    0.61694    0.91926    1.000
    Si5461   Si       0.78906    0.51270    0.90323    1.000
    N5462    N        0.81581    0.52623    0.93353    1.000
    N5463    N        0.86243    0.58070    0.92774    1.000
    N5464    N        0.73858    0.55518    0.91592    1.000
    N5465    N        0.91182    0.55699    0.88560    1.000
    N5466    N        0.96245    0.60443    0.88676    1.000
    Si5467   Si       0.90246    0.56430    0.92591    1.000
    Si5468   Si       0.95771    0.61579    0.92949    1.000
    N5469    N        0.79401    0.66504    0.91892    1.000
    N5470    N        0.90887    0.70368    0.93146    1.000
    N5471    N        0.86445    0.64952    0.91674    1.000
    Si5472   Si       0.92678    0.68143    0.89903    1.000
    Si5473   Si       0.91452    0.74648    0.92223    1.000
    N5474    N        0.95307    0.65944    0.93114    1.000
    N5475    N        0.96284    0.70056    0.88356    1.000
    Si5476   Si       0.98821    0.68194    0.91221    1.000
    N5477    N        0.92715    0.75710    0.88182    1.000
    Si5478   Si       0.78413    0.61909    0.97616    1.000
    Si5479   Si       0.82925    0.56477    0.95052    1.000
    N5480    N        0.80524    0.60023    0.94341    1.000
    Si5481   Si       0.82872    0.51036    0.97342    1.000
    N5482    N        0.83091    0.54995    0.99191    1.000
    N5483    N        0.74078    0.61967    0.96707    1.000
    N5484    N        0.92759    0.59186    0.94682    1.000
    Si5485   Si       0.90236    0.51318    0.98393    1.000
    N5486    N        0.90252    0.52325    0.94145    1.000
    N5487    N        0.97993    0.52958    0.95059    1.000
    Si5488   Si       0.92705    0.58885    0.98994    1.000
    N5489    N        0.83907    0.70686    0.95381    1.000
    N5490    N        0.79842    0.65875    0.98313    1.000
    Si5491   Si       0.79741    0.69194    0.95335    1.000
    N5492    N        0.77004    0.72709    0.94669    1.000
    Si5493   Si       0.85531    0.74591    0.96402    1.000
    N5494    N        0.89309    0.66287    0.97871    1.000
    Si5495   Si       0.87105    0.67976    0.94562    1.000
    Si5496   Si       0.93212    0.67772    0.96425    1.000
    N5497    N        0.95830    0.70133    0.98597    1.000
    Si5498   Si       0.97757    0.73362    0.96429    1.000
    Si5499   Si       0.80116    0.86209    0.01235    1.000
    N5500    N        0.79346    0.83860    0.04768    1.000
    N5501    N        0.85734    0.81267    0.02119    1.000
    N5502    N        0.76222    0.77160    0.00451    1.000
    Si5503   Si       0.82320    0.80696    0.05018    1.000
    N5504    N        0.84000    0.87982    0.01711    1.000
    N5505    N        0.93351    0.79857    0.02165    1.000
    Si5506   Si       0.97173    0.77952    0.02087    1.000
    Si5507   Si       0.94137    0.84094    0.01559    1.000
    Si5508   Si       0.89390    0.78230    0.02720    1.000
    Si5509   Si       0.87191    0.85340    0.02852    1.000
    N5510    N        0.94742    0.86615    0.04975    1.000
    N5511    N        0.90379    0.85414    0.99823    1.000
    N5512    N        0.82476    0.94484    0.03561    1.000
    Si5513   Si       0.84837    0.92062    0.00813    1.000
    Si5514   Si       0.80421    0.98194    0.02119    1.000
    N5515    N        0.77573    0.89461    0.99826    1.000
    N5516    N        0.90153    0.99117    0.03019    1.000
    N5517    N        0.95784    0.96560    0.04033    1.000
    Si5518   Si       0.94111    0.00704    0.03769    1.000
    N5519    N        0.89196    0.92704    0.01146    1.000
    Si5520   Si       0.91595    0.95007    0.03852    1.000
    Si5521   Si       0.84227    0.86110    0.09243    1.000
    N5522    N        0.84366    0.81769    0.08593    1.000
    N5523    N        0.74263    0.87953    0.07320    1.000
    Si5524   Si       0.75077    0.84192    0.05732    1.000
    N5525    N        0.80778    0.76901    0.05677    1.000
    N5526    N        0.89913    0.76926    0.06894    1.000
    Si5527   Si       0.87399    0.79064    0.09972    1.000
    N5528    N        0.96137    0.78148    0.10074    1.000
    N5529    N        0.88277    0.86510    0.06982    1.000
    Si5530   Si       0.98784    0.87164    0.06309    1.000
    Si5531   Si       0.77207    0.88472    0.10495    1.000
    N5532    N        0.82285    0.95553    0.10379    1.000
    N5533    N        0.81166    0.89095    0.08993    1.000
    Si5534   Si       0.80658    0.93254    0.07106    1.000
    Si5535   Si       0.75010    0.98416    0.07003    1.000
    N5536    N        0.76405    0.94189    0.06370    1.000
    N5537    N        0.74108    0.98368    0.11394    1.000
    Si5538   Si       0.85117    0.98503    0.11272    1.000
    Si5539   Si       0.92030    0.88220    0.08159    1.000
    Si5540   Si       0.91930    0.95021    0.11077    1.000
    N5541    N        0.89477    0.98566    0.10323    1.000
    N5542    N        0.91536    0.92541    0.07478    1.000
    Si5543   Si       0.98344    0.95161    0.07554    1.000
    N5544    N        0.96002    0.96455    0.11112    1.000
    Si5545   Si       0.80780    0.85029    0.15291    1.000
    N5546    N        0.84698    0.85724    0.13664    1.000
    N5547    N        0.77483    0.84553    0.12506    1.000
    N5548    N        0.78273    0.76955    0.12274    1.000
    Si5549   Si       0.75581    0.80324    0.11843    1.000
    N5550    N        0.85008    0.75797    0.11199    1.000
    Si5551   Si       0.97427    0.85780    0.12994    1.000
    Si5552   Si       0.87839    0.83628    0.15714    1.000
    N5553    N        0.96750    0.82324    0.15432    1.000
    Si5554   Si       0.94208    0.79292    0.13709    1.000
    N5555    N        0.90170    0.80875    0.13095    1.000
    N5556    N        0.94364    0.76872    0.17263    1.000
    N5557    N        0.93649    0.87851    0.12309    1.000
    N5558    N        0.85251    0.98852    0.15645    1.000
    N5559    N        0.75254    0.91492    0.13077    1.000
    N5560    N        0.78219    0.01070    0.16410    1.000
    Si5561   Si       0.76191    0.91213    0.17216    1.000
    Si5562   Si       0.96954    0.99393    0.14152    1.000
    Si5563   Si       0.92145    0.89657    0.16136    1.000
    N5564    N        0.90289    0.93473    0.14754    1.000
    Si5565   Si       0.83407    0.79780    0.20384    1.000
    N5566    N        0.75709    0.83427    0.21284    1.000
    Si5567   Si       0.76682    0.80064    0.18623    1.000
    Si5568   Si       0.79326    0.85644    0.21764    1.000
    N5569    N        0.77765    0.76163    0.19982    1.000
    N5570    N        0.84540    0.76156    0.22457    1.000
    N5571    N        0.80605    0.81360    0.17274    1.000
    N5572    N        0.79629    0.88310    0.17988    1.000
    N5573    N        0.87151    0.81305    0.19307    1.000
    N5574    N        0.93948    0.82587    0.22026    1.000
    Si5575   Si       0.96534    0.80344    0.19220    1.000
    Si5576   Si       0.89756    0.83835    0.21583    1.000
    N5577    N        0.89911    0.86522    0.18085    1.000
    Si5578   Si       0.76876    0.98327    0.19638    1.000
    Si5579   Si       0.81463    0.91600    0.20281    1.000
    N5580    N        0.85374    0.93192    0.19865    1.000
    N5581    N        0.78540    0.94416    0.18941    1.000
    N5582    N        0.90061    0.97002    0.20778    1.000
    N5583    N        0.95030    0.90562    0.19234    1.000
    Si5584   Si       0.87736    0.95802    0.17341    1.000
    Si5585   Si       0.84582    0.83790    0.26753    1.000
    Si5586   Si       0.76360    0.76366    0.27860    1.000
    N5587    N        0.74556    0.80491    0.27488    1.000
    N5588    N        0.85017    0.79786    0.28480    1.000
    Si5589   Si       0.84064    0.76080    0.26661    1.000
    N5590    N        0.82181    0.82805    0.23372    1.000
    N5591    N        0.88624    0.84794    0.25648    1.000
    Si5592   Si       0.96830    0.84713    0.24341    1.000
    N5593    N        0.91829    0.78018    0.27985    1.000
    N5594    N        0.98349    0.81945    0.27454    1.000
    Si5595   Si       0.96005    0.78522    0.28983    1.000
    N5596    N        0.84801    0.97322    0.25588    1.000
    N5597    N        0.80853    0.89464    0.23891    1.000
    Si5598   Si       0.81047    0.89905    0.28078    1.000
    N5599    N        0.78531    0.00139    0.23172    1.000
    N5600    N        0.95426    0.88318    0.26325    1.000
    N5601    N        0.95401    0.95744    0.24465    1.000
    Si5602   Si       0.91030    0.87936    0.27387    1.000
    N5603    N        0.90050    0.91477    0.24927    1.000
    Si5604   Si       0.94152    0.91650    0.23419    1.000
    Si5605   Si       0.87405    0.94487    0.23489    1.000
    Si5606   Si       0.92926    0.99207    0.23226    1.000
    Si5607   Si       0.81515    0.84450    0.33495    1.000
    N5608    N        0.77202    0.83831    0.34365    1.000
    N5609    N        0.76533    0.77320    0.32273    1.000
    Si5610   Si       0.74556    0.81139    0.31901    1.000
    N5611    N        0.82260    0.85995    0.29451    1.000
    Si5612   Si       0.80091    0.77253    0.34599    1.000
    Si5613   Si       0.88486    0.77794    0.30364    1.000
    N5614    N        0.96256    0.77107    0.33139    1.000
    Si5615   Si       0.93442    0.87378    0.34605    1.000
    N5616    N        0.89176    0.78392    0.34528    1.000
    N5617    N        0.93835    0.83217    0.34469    1.000
    Si5618   Si       0.76407    0.96153    0.30598    1.000
    N5619    N        0.79861    0.98766    0.30622    1.000
    N5620    N        0.84011    0.92347    0.30133    1.000
    Si5621   Si       0.83423    0.96576    0.29715    1.000
    N5622    N        0.86238    0.98689    0.32266    1.000
    Si5623   Si       0.86406    0.90263    0.33091    1.000
    N5624    N        0.77447    0.92198    0.29137    1.000
    N5625    N        0.92564    0.00866    0.34231    1.000
    N5626    N        0.97954    0.98969    0.30497    1.000
    Si5627   Si       0.96530    0.99647    0.34553    1.000
    Si5628   Si       0.98807    0.89372    0.29366    1.000
    N5629    N        0.97138    0.89197    0.33311    1.000
    N5630    N        0.90044    0.88387    0.31666    1.000
    Si5631   Si       0.76482    0.85119    0.38500    1.000
    Si5632   Si       0.84357    0.86335    0.39897    1.000
    N5633    N        0.84009    0.87578    0.35562    1.000
    N5634    N        0.74002    0.81979    0.40326    1.000
    N5635    N        0.82635    0.80690    0.35383    1.000
    N5636    N        0.77462    0.75781    0.37904    1.000
    Si5637   Si       0.86375    0.79527    0.37522    1.000
    Si5638   Si       0.93370    0.79236    0.35749    1.000
    N5639    N        0.93275    0.78035    0.39917    1.000
    N5640    N        0.86733    0.82690    0.40523    1.000
    N5641    N        0.73733    0.88345    0.38315    1.000
    Si5642   Si       0.77685    0.96780    0.38169    1.000
    N5643    N        0.81977    0.97026    0.38617    1.000
    Si5644   Si       0.85751    0.97096    0.36243    1.000
    N5645    N        0.75173    0.95760    0.34691    1.000
    N5646    N        0.92894    0.89104    0.38483    1.000
    N5647    N        0.87560    0.93350    0.35971    1.000
    N5648    N        0.87677    0.99415    0.39094    1.000
    N5649    N        0.96667    0.95794    0.36602    1.000
    Si5650   Si       0.89587    0.91834    0.39452    1.000
    Si5651   Si       0.80693    0.83313    0.44691    1.000
    N5652    N        0.79328    0.79365    0.43723    1.000
    Si5653   Si       0.75600    0.77995    0.41227    1.000
    N5654    N        0.84490    0.85182    0.45942    1.000
    Si5655   Si       0.79197    0.75840    0.46176    1.000
    N5656    N        0.86127    0.78838    0.46895    1.000
    N5657    N        0.80163    0.85579    0.40859    1.000
    Si5658   Si       0.87724    0.82494    0.44725    1.000
    Si5659   Si       0.95200    0.80992    0.42323    1.000
    N5660    N        0.92087    0.81917    0.45263    1.000
    N5661    N        0.97423    0.84574    0.41326    1.000
    Si5662   Si       0.98214    0.76085    0.46358    1.000
    N5663    N        0.98785    0.78669    0.43094    1.000
    N5664    N        0.85397    0.98170    0.45427    1.000
    Si5665   Si       0.83993    0.99549    0.41654    1.000
    Si5666   Si       0.77942    0.93475    0.44942    1.000
    Si5667   Si       0.85343    0.89497    0.45914    1.000
    N5668    N        0.75940    0.94140    0.41228    1.000
    N5669    N        0.86585    0.89675    0.41632    1.000
    Si5670   Si       0.91640    0.93732    0.46070    1.000
    N5671    N        0.91688    0.94721    0.41946    1.000
    Si5672   Si       0.95798    0.88609    0.41751    1.000
    N5673    N        0.98447    0.96253    0.43841    1.000
    N5674    N        0.94088    0.90063    0.45559    1.000
    Si5675   Si       0.95422    0.96703    0.40792    1.000
    Si5676   Si       0.83976    0.78667    0.50492    1.000
    N5677    N        0.77812    0.84672    0.47703    1.000
    N5678    N        0.79938    0.76729    0.50429    1.000
    N5679    N        0.92409    0.85673    0.50891    1.000
    Si5680   Si       0.94444    0.82364    0.48990    1.000
    N5681    N        0.96170    0.78352    0.49190    1.000
    N5682    N        0.97933    0.85094    0.48520    1.000
    Si5683   Si       0.78706    0.88922    0.49035    1.000
    Si5684   Si       0.83202    0.95544    0.48214    1.000
    N5685    N        0.75456    0.91223    0.47733    1.000
    N5686    N        0.79187    0.97121    0.46881    1.000
    Si5687   Si       0.77052    0.00312    0.49004    1.000
    N5688    N        0.84726    0.96112    0.52289    1.000
    N5689    N        0.81553    0.91549    0.46804    1.000
    Si5690   Si       0.95378    0.88542    0.49249    1.000
    N5691    N        0.96742    0.92012    0.51386    1.000
    N5692    N        0.91609    0.97508    0.48058    1.000
    Si5693   Si       0.88577    0.00551    0.47431    1.000
    N5694    N        0.87995    0.92254    0.48200    1.000
    Si5695   Si       0.79247    0.84136    0.54384    1.000
    N5696    N        0.75124    0.82490    0.53592    1.000
    Si5697   Si       0.85968    0.80539    0.56280    1.000
    N5698    N        0.83002    0.82168    0.53294    1.000
    N5699    N        0.75617    0.76210    0.56681    1.000
    N5700    N        0.86535    0.77060    0.53640    1.000
    N5701    N        0.89525    0.82902    0.56464    1.000
    N5702    N        0.94774    0.78223    0.55585    1.000
    Si5703   Si       0.90275    0.86665    0.54510    1.000
    Si5704   Si       0.97024    0.76002    0.52792    1.000
    Si5705   Si       0.92314    0.80240    0.58333    1.000
    N5706    N        0.79476    0.88331    0.53101    1.000
    Si5707   Si       0.79271    0.91151    0.56367    1.000
    N5708    N        0.78233    0.95349    0.55186    1.000
    Si5709   Si       0.81474    0.98454    0.54565    1.000
    N5710    N        0.73895    0.99868    0.58175    1.000
    Si5711   Si       0.74126    0.96935    0.54847    1.000
    N5712    N        0.81403    0.00781    0.58326    1.000
    N5713    N        0.93716    0.88864    0.56714    1.000
    N5714    N        0.87514    0.90037    0.54753    1.000
    Si5715   Si       0.95121    0.92636    0.55535    1.000
    N5716    N        0.98238    0.94301    0.57897    1.000
    Si5717   Si       0.90420    0.98332    0.58157    1.000
    N5718    N        0.91743    0.95470    0.54892    1.000
    Si5719   Si       0.88257    0.93682    0.52438    1.000
    Si5720   Si       0.81036    0.83025    0.62092    1.000
    N5721    N        0.84079    0.80558    0.60182    1.000
    Si5722   Si       0.74817    0.85970    0.60232    1.000
    N5723    N        0.78712    0.84334    0.58736    1.000
    N5724    N        0.74138    0.76335    0.63609    1.000
    Si5725   Si       0.74659    0.80505    0.64373    1.000
    N5726    N        0.79275    0.80150    0.64861    1.000
    Si5727   Si       0.87212    0.78751    0.62953    1.000
    Si5728   Si       0.98081    0.81972    0.61857    1.000
    N5729    N        0.94307    0.83277    0.60669    1.000
    Si5730   Si       0.92874    0.87373    0.60709    1.000
    N5731    N        0.89155    0.77143    0.59558    1.000
    Si5732   Si       0.86620    0.86604    0.64560    1.000
    Si5733   Si       0.81624    0.91311    0.63414    1.000
    N5734    N        0.82473    0.91499    0.59289    1.000
    N5735    N        0.75768    0.90109    0.58853    1.000
    Si5736   Si       0.77478    0.01005    0.60420    1.000
    Si5737   Si       0.87314    0.96815    0.64308    1.000
    N5738    N        0.93778    0.99134    0.61091    1.000
    N5739    N        0.87540    0.95738    0.60071    1.000
    N5740    N        0.88708    0.88635    0.61505    1.000
    Si5741   Si       0.86723    0.91602    0.58735    1.000
    Si5742   Si       0.97676    0.98274    0.59256    1.000
    Si5743   Si       0.81129    0.76589    0.66909    1.000
    N5744    N        0.75795    0.85655    0.64724    1.000
    Si5745   Si       0.78877    0.87551    0.66922    1.000
    N5746    N        0.82364    0.86695    0.64433    1.000
    Si5747   Si       0.98000    0.83046    0.69439    1.000
    N5748    N        0.91986    0.77895    0.65711    1.000
    Si5749   Si       0.90566    0.81270    0.68056    1.000
    N5750    N        0.87733    0.82653    0.65237    1.000
    N5751    N        0.93700    0.83431    0.70033    1.000
    N5752    N        0.98877    0.80727    0.65978    1.000
    Si5753   Si       0.84806    0.94072    0.69900    1.000
    Si5754   Si       0.81201    0.99805    0.67112    1.000
    N5755    N        0.78360    0.91755    0.65982    1.000
    Si5756   Si       0.75660    0.95213    0.65878    1.000
    N5757    N        0.84476    0.93652    0.65519    1.000
    N5758    N        0.85384    0.00312    0.65797    1.000
    N5759    N        0.77966    0.98680    0.64320    1.000
    N5760    N        0.97966    0.97903    0.67742    1.000
    N5761    N        0.90961    0.95057    0.66181    1.000
    Si5762   Si       0.91912    0.90829    0.67018    1.000
    N5763    N        0.94868    0.88960    0.64373    1.000
    Si5764   Si       0.95382    0.00494    0.64969    1.000
    Si5765   Si       0.92580    0.96300    0.70072    1.000
    N5766    N        0.88412    0.88450    0.68208    1.000
    Si5767   Si       0.78177    0.77509    0.74188    1.000
    Si5768   Si       0.84746    0.79934    0.73055    1.000
    Si5769   Si       0.79619    0.85108    0.73924    1.000
    N5770    N        0.83465    0.84119    0.72140    1.000
    N5771    N        0.81334    0.78041    0.71091    1.000
    N5772    N        0.74558    0.76450    0.72232    1.000
    N5773    N        0.77180    0.86765    0.70768    1.000
    N5774    N        0.77914    0.81606    0.75770    1.000
    Si5775   Si       0.86268    0.87226    0.71910    1.000
    Si5776   Si       0.93109    0.84387    0.74186    1.000
    Si5777   Si       0.91491    0.76979    0.73842    1.000
    N5778    N        0.89401    0.86595    0.74983    1.000
    N5779    N        0.88553    0.78970    0.71479    1.000
    N5780    N        0.96367    0.86821    0.75208    1.000
    N5781    N        0.92586    0.80601    0.76235    1.000
    N5782    N        0.83798    0.90721    0.72325    1.000
    Si5783   Si       0.81353    0.97848    0.74685    1.000
    N5784    N        0.77824    0.00345    0.75468    1.000
    N5785    N        0.81632    0.97045    0.70396    1.000
    N5786    N        0.94161    0.92265    0.70580    1.000
    N5787    N        0.94366    0.98740    0.73411    1.000
    N5788    N        0.88348    0.95563    0.72102    1.000
    Si5789   Si       0.97158    0.89751    0.72016    1.000
    Si5790   Si       0.98471    0.99276    0.71687    1.000
    Si5791   Si       0.88521    0.98707    0.75067    1.000
    Si5792   Si       0.76769    0.80861    0.79919    1.000
    Si5793   Si       0.83098    0.77282    0.79884    1.000
    N5794    N        0.85483    0.79651    0.77555    1.000
    N5795    N        0.80722    0.87486    0.77649    1.000
    N5796    N        0.75652    0.84901    0.81136    1.000
    Si5797   Si       0.79731    0.86637    0.81817    1.000
    Si5798   Si       0.89338    0.81098    0.79134    1.000
    N5799    N        0.88647    0.84644    0.81445    1.000
    N5800    N        0.90452    0.78346    0.82092    1.000
    N5801    N        0.79577    0.94396    0.76520    1.000
    N5802    N        0.84681    0.98748    0.77005    1.000
    Si5803   Si       0.76238    0.96885    0.77838    1.000
    Si5804   Si       0.82453    0.91246    0.76486    1.000
    Si5805   Si       0.85712    0.99995    0.80941    1.000
    N5806    N        0.73886    0.92188    0.80023    1.000
    N5807    N        0.86026    0.91447    0.78874    1.000
    Si5808   Si       0.96443    0.91591    0.80768    1.000
    Si5809   Si       0.95099    0.98296    0.77796    1.000
    N5810    N        0.92176    0.90681    0.80496    1.000
    Si5811   Si       0.89008    0.88130    0.78947    1.000
    N5812    N        0.97618    0.95068    0.78377    1.000
    N5813    N        0.91032    0.97020    0.78383    1.000
    Si5814   Si       0.89075    0.93990    0.80595    1.000
    N5815    N        0.82832    0.85503    0.84666    1.000
    Si5816   Si       0.79798    0.77349    0.86074    1.000
    N5817    N        0.75867    0.78483    0.87654    1.000
    Si5818   Si       0.80712    0.87933    0.87645    1.000
    N5819    N        0.80194    0.79636    0.82319    1.000
    N5820    N        0.98257    0.75804    0.83767    1.000
    Si5821   Si       0.87083    0.84625    0.85371    1.000
    Si5822   Si       0.91382    0.79270    0.86132    1.000
    N5823    N        0.94787    0.82075    0.86140    1.000
    Si5824   Si       0.98337    0.80371    0.83852    1.000
    N5825    N        0.89912    0.87257    0.87460    1.000
    N5826    N        0.88054    0.81259    0.88020    1.000
    N5827    N        0.78910    0.90219    0.84468    1.000
    Si5828   Si       0.76183    0.93489    0.83682    1.000
    N5829    N        0.77226    0.97463    0.81938    1.000
    Si5830   Si       0.94270    0.95206    0.87504    1.000
    N5831    N        0.96799    0.92644    0.85100    1.000
    N5832    N        0.86781    0.96719    0.83244    1.000
    N5833    N        0.95376    0.99316    0.86417    1.000
    Si5834   Si       0.87252    0.96565    0.87447    1.000
    N5835    N        0.77995    0.85425    0.90061    1.000
    N5836    N        0.81758    0.79016    0.89685    1.000
    Si5837   Si       0.77847    0.81083    0.90493    1.000
    Si5838   Si       0.85738    0.79871    0.91441    1.000
    Si5839   Si       0.75644    0.88186    0.92581    1.000
    Si5840   Si       0.93654    0.85363    0.88779    1.000
    N5841    N        0.87491    0.76160    0.92765    1.000
    N5842    N        0.93011    0.84880    0.93041    1.000
    N5843    N        0.97407    0.87706    0.89413    1.000
    Si5844   Si       0.74112    0.98320    0.88443    1.000
    N5845    N        0.83966    0.89888    0.89857    1.000
    N5846    N        0.84325    0.96298    0.90647    1.000
    Si5847   Si       0.82516    0.92927    0.92531    1.000
    N5848    N        0.78127    0.91659    0.93399    1.000
    Si5849   Si       0.86539    0.99549    0.92794    1.000
    N5850    N        0.89114    0.00058    0.89438    1.000
    N5851    N        0.90261    0.93658    0.88054    1.000
    N5852    N        0.95987    0.94827    0.91395    1.000
    Si5853   Si       0.98456    0.91354    0.91743    1.000
    Si5854   Si       0.88392    0.90338    0.90131    1.000
    Si5855   Si       0.83831    0.81254    0.98165    1.000
    N5856    N        0.82437    0.77348    0.97110    1.000
    Si5857   Si       0.75432    0.81840    0.97675    1.000
    N5858    N        0.79914    0.83161    0.98391    1.000
    N5859    N        0.76338    0.79457    0.94211    1.000
    N5860    N        0.73840    0.85696    0.95550    1.000
    Si5861   Si       0.78329    0.76353    0.96604    1.000
    N5862    N        0.86129    0.82916    0.94809    1.000
    Si5863   Si       0.89676    0.85760    0.95607    1.000
    N5864    N        0.97050    0.83442    0.98233    1.000
    Si5865   Si       0.97278    0.79618    0.95834    1.000
    Si5866   Si       0.97253    0.85526    0.94424    1.000
    N5867    N        0.94798    0.76158    0.94717    1.000
    Si5868   Si       0.75181    0.99517    0.96640    1.000
    N5869    N        0.83265    0.92832    0.96752    1.000
    Si5870   Si       0.78682    0.92846    0.97604    1.000
    N5871    N        0.77590    0.96870    0.98929    1.000
    N5872    N        0.98005    0.89602    0.95685    1.000
    Si5873   Si       0.98272    0.93437    0.98102    1.000
    N5874    N        0.88327    0.97647    0.96340    1.000
    Si5875   Si       0.90139    0.93537    0.97007    1.000
    N5876    N        0.94334    0.94814    0.97687    1.000
    Si5877   Si       0.95617    0.97768    0.94681    1.000
    N5878    N        0.89194    0.90008    0.94412    1.000
    Si5879   Si       0.87677    0.00494    0.99719    1.000
