# CIF file generated by openbabel 3.1.1, see https://openbabel.org
data_I
_chemical_name_common '3.01-13.aims'
_cell_length_a 39.938
_cell_length_b 39.938
_cell_length_c 39.938
_cell_angle_alpha 90
_cell_angle_beta 90
_cell_angle_gamma 90
loop_
    _atom_site_label
    _atom_site_type_symbol
    _atom_site_fract_x
    _atom_site_fract_y
    _atom_site_fract_z
    _atom_site_occupancy
    N0       N        0.01629    0.06177    0.03936    1.000
    N1       N        0.03009    0.05500    0.10918    1.000
    Si2      Si       0.99576    0.07951    0.00674    1.000
    Si3      Si       0.04187    0.07230    0.07138    1.000
    N4       N        0.04267    0.11444    0.07981    1.000
    Si5      Si       0.99007    0.03666    0.11116    1.000
    N6       N        0.00220    0.16792    0.07674    1.000
    Si7      Si       0.01903    0.14337    0.10668    1.000
    N8       N        0.02588    0.22693    0.02479    1.000
    N9       N        0.99992    0.17101    0.00342    1.000
    N10      N        0.04325    0.23051    0.09236    1.000
    N11      N        0.00662    0.06638    0.20585    1.000
    Si12     Si       0.99498    0.09611    0.17038    1.000
    N13      N        0.04195    0.10019    0.16832    1.000
    N14      N        0.99568    0.13370    0.13971    1.000
    Si15     Si       0.04530    0.01105    0.24683    1.000
    N16      N        0.01018    0.22442    0.22806    1.000
    Si17     Si       0.04716    0.20746    0.12604    1.000
    Si18     Si       0.04668    0.13452    0.19622    1.000
    Si19     Si       0.01334    0.18222    0.23896    1.000
    Si20     Si       0.04322    0.25243    0.22576    1.000
    N21      N        0.01052    0.20019    0.14882    1.000
    N22      N        0.01091    0.15794    0.20309    1.000
    Si23     Si       0.00889    0.02682    0.30998    1.000
    N24      N        0.01019    0.06877    0.31906    1.000
    N25      N        0.00856    0.02533    0.26721    1.000
    Si26     Si       0.04226    0.09753    0.32479    1.000
    N27      N        0.03024    0.12798    0.29535    1.000
    N28      N        0.03979    0.11237    0.36502    1.000
    N29      N        0.03045    0.17503    0.34102    1.000
    Si30     Si       0.00178    0.15700    0.31104    1.000
    N31      N        0.00368    0.07297    0.41774    1.000
    Si32     Si       0.00034    0.03485    0.43769    1.000
    Si33     Si       0.04090    0.08378    0.39544    1.000
    N34      N        0.03641    0.01234    0.43556    1.000
    Si35     Si       0.04188    0.22492    0.40949    1.000
    Si36     Si       0.02735    0.15333    0.38088    1.000
    N37      N        0.00841    0.13854    0.45455    1.000
    N38      N        0.00436    0.19874    0.41191    1.000
    N39      N        0.98830    0.18934    0.49157    1.000
    Si40     Si       0.99017    0.18042    0.44891    1.000
    Si41     Si       0.99577    0.14715    0.49746    1.000
    N42      N        0.01954    0.05943    0.53714    1.000
    N43      N        0.99900    0.11469    0.59477    1.000
    Si44     Si       0.03664    0.11638    0.61941    1.000
    N45      N        0.02394    0.14371    0.52957    1.000
    Si46     Si       0.01598    0.14837    0.57111    1.000
    N47      N        0.03682    0.24389    0.61034    1.000
    Si48     Si       0.00041    0.23040    0.58730    1.000
    N49      N        0.03271    0.23776    0.50098    1.000
    Si50     Si       0.99199    0.22717    0.51192    1.000
    N51      N        0.00247    0.18859    0.57819    1.000
    N52      N        0.03157    0.11884    0.66365    1.000
    Si53     Si       0.01590    0.01706    0.68199    1.000
    N54      N        0.99909    0.05959    0.67569    1.000
    Si55     Si       0.04336    0.07808    0.67034    1.000
    N56      N        0.00725    0.12236    0.74312    1.000
    N57      N        0.01974    0.18125    0.64604    1.000
    Si58     Si       0.01375    0.15658    0.68074    1.000
    N59      N        0.03475    0.17368    0.71407    1.000
    Si60     Si       0.02225    0.10432    0.83808    1.000
    Si61     Si       0.00773    0.08366    0.76610    1.000
    N62      N        0.03748    0.09853    0.79766    1.000
    N63      N        0.99175    0.07336    0.84625    1.000
    Si64     Si       0.02280    0.00684    0.75232    1.000
    N65      N        0.02397    0.04980    0.74728    1.000
    N66      N        0.00953    0.14039    0.85957    1.000
    N67      N        0.03871    0.18166    0.78129    1.000
    N68      N        0.00574    0.24750    0.77796    1.000
    Si69     Si       0.02735    0.18016    0.85557    1.000
    Si70     Si       0.00105    0.20671    0.79140    1.000
    N71      N        0.99548    0.20315    0.83647    1.000
    Si72     Si       0.04005    0.15004    0.75040    1.000
    N73      N        0.99224    0.04310    0.98203    1.000
    N74      N        0.99187    0.01826    0.89614    1.000
    N75      N        0.01893    0.10776    0.98165    1.000
    Si76     Si       0.02888    0.02426    0.98378    1.000
    N77      N        0.00573    0.08717    0.90729    1.000
    Si78     Si       0.99053    0.12698    0.89627    1.000
    Si79     Si       0.99791    0.14309    0.97037    1.000
    N80      N        0.03655    0.20540    0.88941    1.000
    N81      N        0.00994    0.21970    0.95704    1.000
    Si82     Si       0.00793    0.19674    0.91927    1.000
    Si83     Si       0.02943    0.20017    0.99086    1.000
    N84      N        0.00383    0.15417    0.92912    1.000
    Si85     Si       0.02426    0.27032    0.09413    1.000
    N86      N        0.99767    0.33974    0.06579    1.000
    Si87     Si       0.00909    0.26693    0.02347    1.000
    Si88     Si       0.03569    0.32411    0.04927    1.000
    N89      N        0.99183    0.27420    0.06326    1.000
    N90      N        0.04478    0.29249    0.01782    1.000
    Si91     Si       0.98882    0.37805    0.08284    1.000
    N92      N        0.04438    0.35354    0.01961    1.000
    Si93     Si       0.03176    0.39602    0.01965    1.000
    N94      N        0.01611    0.40322    0.05955    1.000
    N95      N        0.01311    0.48262    0.09953    1.000
    N96      N        0.03448    0.48145    0.02886    1.000
    Si97     Si       0.02335    0.50380    0.06387    1.000
    N98      N        0.00723    0.34594    0.23476    1.000
    N99      N        0.00784    0.26936    0.13467    1.000
    Si100    Si       0.01542    0.30214    0.16454    1.000
    N101     N        0.03832    0.28374    0.19600    1.000
    Si102    Si       0.05038    0.34668    0.24280    1.000
    Si103    Si       0.03671    0.45887    0.12928    1.000
    N104     N        0.03824    0.41554    0.12560    1.000
    N105     N        0.00852    0.45586    0.16133    1.000
    Si106    Si       0.02084    0.47595    0.19736    1.000
    N107     N        0.02320    0.44860    0.23122    1.000
    Si108    Si       0.99497    0.41216    0.14482    1.000
    N109     N        0.00985    0.30963    0.29424    1.000
    N110     N        0.00170    0.36152    0.34744    1.000
    Si111    Si       0.99835    0.31862    0.33557    1.000
    N112     N        0.01976    0.29171    0.36370    1.000
    N113     N        0.00821    0.40721    0.29050    1.000
    Si114    Si       0.02531    0.45349    0.31924    1.000
    N115     N        0.00068    0.43527    0.35122    1.000
    N116     N        0.03796    0.48382    0.34762    1.000
    Si117    Si       0.99533    0.43896    0.26297    1.000
    N118     N        0.99514    0.46978    0.29195    1.000
    Si119    Si       0.02635    0.36551    0.38570    1.000
    N120     N        0.02374    0.33163    0.41650    1.000
    Si121    Si       0.03323    0.33985    0.45782    1.000
    Si122    Si       0.00766    0.29267    0.40601    1.000
    N123     N        0.01774    0.30658    0.48030    1.000
    Si124    Si       0.03311    0.26795    0.46962    1.000
    N125     N        0.03204    0.36990    0.49191    1.000
    N126     N        0.02363    0.25998    0.42888    1.000
    Si127    Si       0.00787    0.47142    0.37680    1.000
    N128     N        0.03057    0.45865    0.41410    1.000
    N129     N        0.99138    0.42685    0.47084    1.000
    N130     N        0.00918    0.39417    0.41171    1.000
    Si131    Si       0.00079    0.43259    0.42963    1.000
    N132     N        0.99226    0.50901    0.38881    1.000
    N133     N        0.01864    0.35355    0.55848    1.000
    Si134    Si       0.02538    0.34077    0.60054    1.000
    N135     N        0.99727    0.30856    0.61286    1.000
    Si136    Si       0.01539    0.46864    0.54265    1.000
    N137     N        0.03145    0.43023    0.52656    1.000
    Si138    Si       0.00556    0.40373    0.50270    1.000
    N139     N        0.99420    0.49575    0.51221    1.000
    N140     N        0.04686    0.48829    0.56508    1.000
    N141     N        0.02531    0.37428    0.62901    1.000
    Si142    Si       0.01409    0.27718    0.63793    1.000
    Si143    Si       0.99549    0.37648    0.65961    1.000
    Si144    Si       0.04198    0.32396    0.74442    1.000
    Si145    Si       0.99781    0.37621    0.72440    1.000
    N146     N        0.00113    0.30353    0.74245    1.000
    N147     N        0.98851    0.27959    0.67283    1.000
    N148     N        0.02414    0.44422    0.62877    1.000
    Si149    Si       0.01895    0.44794    0.68800    1.000
    N150     N        0.01903    0.46160    0.73181    1.000
    N151     N        0.00641    0.40532    0.69106    1.000
    Si152    Si       0.99924    0.28640    0.85766    1.000
    N153     N        0.99704    0.30066    0.81673    1.000
    Si154    Si       0.00294    0.34036    0.83149    1.000
    N155     N        0.02807    0.36333    0.75364    1.000
    Si156    Si       0.04813    0.25720    0.77263    1.000
    N157     N        0.98495    0.37162    0.80869    1.000
    Si158    Si       0.02452    0.38377    0.79118    1.000
    N159     N        0.02591    0.42641    0.78924    1.000
    N160     N        0.02036    0.47554    0.83197    1.000
    Si161    Si       0.99554    0.44281    0.76213    1.000
    Si162    Si       0.00579    0.50128    0.80240    1.000
    Si163    Si       0.05097    0.44457    0.82122    1.000
    N164     N        0.03559    0.27399    0.87460    1.000
    N165     N        0.99412    0.32889    0.87503    1.000
    Si166    Si       0.01772    0.34216    0.91127    1.000
    N167     N        0.02754    0.32171    0.94922    1.000
    N168     N        0.00912    0.39630    0.98382    1.000
    Si169    Si       0.00230    0.47622    0.87052    1.000
    N170     N        0.00553    0.38366    0.92075    1.000
    N171     N        0.99939    0.47821    0.96152    1.000
    Si172    Si       0.02764    0.49633    0.98846    1.000
    Si173    Si       0.03135    0.47140    0.93253    1.000
    Si174    Si       0.03475    0.40021    0.94924    1.000
    N175     N        0.03090    0.49488    0.89708    1.000
    Si176    Si       0.00467    0.55828    0.02174    1.000
    N177     N        0.03023    0.58652    0.04062    1.000
    N178     N        0.00481    0.58212    0.10519    1.000
    Si179    Si       0.04133    0.57345    0.08247    1.000
    N180     N        0.99157    0.53004    0.05070    1.000
    Si181    Si       0.04443    0.74153    0.04494    1.000
    N182     N        0.03118    0.70233    0.03750    1.000
    N183     N        0.02910    0.65720    0.08739    1.000
    Si184    Si       0.00292    0.67787    0.05931    1.000
    Si185    Si       0.00519    0.60238    0.14342    1.000
    N186     N        0.01406    0.57529    0.17562    1.000
    Si187    Si       0.01724    0.54953    0.20906    1.000
    N188     N        0.99797    0.51281    0.20040    1.000
    N189     N        0.99733    0.56503    0.24462    1.000
    N190     N        0.99078    0.69007    0.14059    1.000
    N191     N        0.02144    0.73967    0.17800    1.000
    Si192    Si       0.02601    0.67058    0.12849    1.000
    N193     N        0.03111    0.63570    0.15376    1.000
    N194     N        0.01344    0.53552    0.30249    1.000
    Si195    Si       0.01345    0.57348    0.28247    1.000
    N196     N        0.99726    0.61193    0.29728    1.000
    Si197    Si       0.02532    0.64321    0.30455    1.000
    N198     N        0.03204    0.66198    0.26623    1.000
    Si199    Si       0.02184    0.74644    0.33272    1.000
    Si200    Si       0.01227    0.69473    0.24861    1.000
    N201     N        0.99061    0.66242    0.32876    1.000
    N202     N        0.04225    0.72860    0.24487    1.000
    Si203    Si       0.01470    0.52950    0.41997    1.000
    Si204    Si       0.99818    0.60017    0.39817    1.000
    N205     N        0.02535    0.52697    0.46049    1.000
    N206     N        0.00058    0.61983    0.44147    1.000
    N207     N        0.04416    0.60341    0.38995    1.000
    Si208    Si       0.04165    0.62002    0.45406    1.000
    N209     N        0.98677    0.56226    0.41774    1.000
    Si210    Si       0.03859    0.68385    0.41020    1.000
    N211     N        0.01563    0.75828    0.46389    1.000
    Si212    Si       0.99399    0.72953    0.43645    1.000
    N213     N        0.99598    0.69126    0.41402    1.000
    Si214    Si       0.00819    0.61357    0.52338    1.000
    Si215    Si       0.99670    0.61134    0.60161    1.000
    N216     N        0.01609    0.62596    0.56512    1.000
    N217     N        0.99622    0.57125    0.51256    1.000
    Si218    Si       0.01558    0.53159    0.50131    1.000
    N219     N        0.02709    0.58544    0.62041    1.000
    N220     N        0.04054    0.62952    0.49689    1.000
    N221     N        0.02576    0.70434    0.50020    1.000
    Si222    Si       0.99735    0.74124    0.61844    1.000
    Si223    Si       0.02657    0.61065    0.65575    1.000
    Si224    Si       0.00301    0.54463    0.68377    1.000
    N225     N        0.00631    0.58861    0.68648    1.000
    N226     N        0.03635    0.52146    0.69703    1.000
    Si227    Si       0.98750    0.61351    0.71600    1.000
    Si228    Si       0.01496    0.50626    0.73326    1.000
    Si229    Si       0.00224    0.73214    0.68187    1.000
    N230     N        0.03150    0.72582    0.64352    1.000
    N231     N        0.01692    0.64440    0.72123    1.000
    N232     N        0.99010    0.69246    0.67395    1.000
    N233     N        0.03721    0.75133    0.70269    1.000
    Si234    Si       0.00969    0.68237    0.63400    1.000
    N235     N        0.00018    0.63995    0.63428    1.000
    Si236    Si       0.01613    0.57224    0.82620    1.000
    N237     N        0.03393    0.51513    0.76969    1.000
    N238     N        0.98993    0.53777    0.81911    1.000
    N239     N        0.02462    0.56291    0.86840    1.000
    Si240    Si       0.00377    0.66446    0.75799    1.000
    N241     N        0.02862    0.64160    0.78665    1.000
    Si242    Si       0.03172    0.66404    0.82410    1.000
    N243     N        0.01445    0.70410    0.76770    1.000
    N244     N        0.99379    0.67290    0.84257    1.000
    Si245    Si       0.04316    0.72314    0.79291    1.000
    N246     N        0.03608    0.75440    0.82207    1.000
    N247     N        0.99259    0.62024    0.88666    1.000
    N248     N        0.99983    0.57039    0.93703    1.000
    Si249    Si       0.04029    0.56336    0.95504    1.000
    N250     N        0.02643    0.54038    0.99004    1.000
    Si251    Si       0.99304    0.57766    0.89480    1.000
    Si252    Si       0.99083    0.69806    0.87884    1.000
    Si253    Si       0.01773    0.69028    0.94607    1.000
    N254     N        0.02149    0.73480    0.94000    1.000
    N255     N        0.02119    0.68047    0.90497    1.000
    Si256    Si       0.03147    0.64112    0.89217    1.000
    Si257    Si       0.01091    0.83537    0.01799    1.000
    N258     N        0.03215    0.77054    0.07561    1.000
    Si259    Si       0.01382    0.80855    0.08418    1.000
    N260     N        0.00209    0.87993    0.01678    1.000
    N261     N        0.99060    0.81169    0.04641    1.000
    N262     N        0.01907    0.93351    0.10577    1.000
    N263     N        0.03003    0.99640    0.01532    1.000
    Si264    Si       0.03620    0.94204    0.06821    1.000
    Si265    Si       0.00096    0.96338    0.01225    1.000
    N266     N        0.99489    0.94035    0.04801    1.000
    N267     N        0.99475    0.99360    0.11071    1.000
    N268     N        0.02257    0.82788    0.16965    1.000
    Si269    Si       0.02550    0.83243    0.21183    1.000
    N270     N        0.04617    0.79613    0.22551    1.000
    Si271    Si       0.02605    0.75826    0.21765    1.000
    N272     N        0.04639    0.86558    0.22751    1.000
    Si273    Si       0.01524    0.90748    0.14251    1.000
    N274     N        0.03299    0.99358    0.20736    1.000
    Si275    Si       0.02110    0.97024    0.13427    1.000
    Si276    Si       0.01587    0.95277    0.20721    1.000
    N277     N        0.00162    0.94351    0.16655    1.000
    N278     N        0.01842    0.78498    0.31078    1.000
    N279     N        0.02946    0.84563    0.34365    1.000
    Si280    Si       0.04717    0.81680    0.32069    1.000
    N281     N        0.00552    0.88550    0.27724    1.000
    N282     N        0.01975    0.95518    0.31171    1.000
    Si283    Si       0.99931    0.92945    0.28248    1.000
    Si284    Si       0.99060    0.96646    0.34206    1.000
    Si285    Si       0.00199    0.78389    0.38989    1.000
    N286     N        0.02267    0.81917    0.40563    1.000
    Si287    Si       0.01413    0.85802    0.38226    1.000
    Si288    Si       0.00306    0.86385    0.48764    1.000
    N289     N        0.03584    0.76033    0.37291    1.000
    Si290    Si       0.01457    0.91237    0.44053    1.000
    Si291    Si       0.00060    0.97344    0.41943    1.000
    N292     N        0.01847    0.89708    0.39991    1.000
    N293     N        0.03664    0.94943    0.43706    1.000
    N294     N        0.03598    0.88879    0.47010    1.000
    N295     N        0.01550    0.96826    0.37910    1.000
    Si296    Si       0.03181    0.82639    0.54962    1.000
    N297     N        0.03678    0.79311    0.51952    1.000
    N298     N        0.04254    0.85784    0.52272    1.000
    N299     N        0.02683    0.87338    0.58333    1.000
    N300     N        0.01378    0.76694    0.58871    1.000
    Si301    Si       0.00185    0.78637    0.49360    1.000
    Si302    Si       0.00838    0.97640    0.52383    1.000
    Si303    Si       0.02942    0.89526    0.54543    1.000
    N304     N        0.01052    0.93423    0.53064    1.000
    Si305    Si       0.99287    0.88931    0.61126    1.000
    N306     N        0.04383    0.99050    0.50489    1.000
    N307     N        0.99300    0.99157    0.56103    1.000
    N308     N        0.01128    0.80935    0.69775    1.000
    N309     N        0.00392    0.87216    0.64980    1.000
    Si310    Si       0.00887    0.77724    0.72669    1.000
    N311     N        0.04734    0.79772    0.64040    1.000
    Si312    Si       0.99391    0.95114    0.71797    1.000
    Si313    Si       0.99685    0.95347    0.64747    1.000
    N314     N        0.00163    0.99671    0.64712    1.000
    Si315    Si       0.04214    0.89226    0.66239    1.000
    N316     N        0.03240    0.94261    0.73570    1.000
    N317     N        0.03413    0.93580    0.66091    1.000
    N318     N        0.00322    0.99480    0.71640    1.000
    N319     N        0.01089    0.79048    0.76544    1.000
    Si320    Si       0.00882    0.78282    0.80857    1.000
    N321     N        0.02637    0.82152    0.81606    1.000
    Si322    Si       0.02234    0.83379    0.77405    1.000
    Si323    Si       0.98945    0.88089    0.81168    1.000
    Si324    Si       0.01160    0.94170    0.77558    1.000
    N325     N        0.02056    0.91220    0.80658    1.000
    N326     N        0.01493    0.98432    0.78801    1.000
    Si327    Si       0.00082    0.99244    0.82895    1.000
    N328     N        0.03723    0.99894    0.85175    1.000
    N329     N        0.03194    0.84305    0.90671    1.000
    Si330    Si       0.00548    0.83026    0.94069    1.000
    N331     N        0.02274    0.82034    0.97924    1.000
    Si332    Si       0.02385    0.87267    0.87706    1.000
    N333     N        0.00638    0.93515    0.97985    1.000
    Si334    Si       0.01062    0.89238    0.97423    1.000
    N335     N        0.02324    0.91332    0.89099    1.000
    N336     N        0.03667    0.00274    0.94733    1.000
    Si337    Si       0.03503    0.00670    0.89982    1.000
    N338     N        0.07768    0.04634    0.06112    1.000
    N339     N        0.08668    0.11987    0.99683    1.000
    Si340    Si       0.08653    0.16406    0.00619    1.000
    Si341    Si       0.07258    0.14705    0.07658    1.000
    N342     N        0.06685    0.17455    0.04443    1.000
    N343     N        0.08857    0.24452    0.04203    1.000
    Si344    Si       0.05636    0.21673    0.05493    1.000
    N345     N        0.06132    0.16474    0.11556    1.000
    N346     N        0.09667    0.07324    0.12104    1.000
    N347     N        0.05643    0.10963    0.23174    1.000
    N348     N        0.06740    0.04321    0.16967    1.000
    N349     N        0.07075    0.04472    0.23587    1.000
    Si350    Si       0.05680    0.07147    0.13839    1.000
    Si351    Si       0.05101    0.06990    0.20354    1.000
    N352     N        0.07604    0.22781    0.20938    1.000
    Si353    Si       0.10474    0.23706    0.17781    1.000
    N354     N        0.08501    0.15746    0.19021    1.000
    Si355    Si       0.09268    0.17197    0.14827    1.000
    N356     N        0.08535    0.21521    0.14602    1.000
    Si357    Si       0.08760    0.18942    0.22372    1.000
    Si358    Si       0.07686    0.03922    0.33915    1.000
    N359     N        0.08007    0.07923    0.31880    1.000
    N360     N        0.05133    0.01375    0.31625    1.000
    Si361    Si       0.06093    0.13598    0.26724    1.000
    N362     N        0.09904    0.14120    0.28977    1.000
    Si363    Si       0.09109    0.25048    0.29166    1.000
    N364     N        0.08954    0.20989    0.30513    1.000
    Si365    Si       0.06610    0.19893    0.33993    1.000
    N366     N        0.10159    0.18469    0.36358    1.000
    N367     N        0.05311    0.23073    0.36842    1.000
    N368     N        0.05349    0.17451    0.24754    1.000
    N369     N        0.05987    0.04926    0.37799    1.000
    N370     N        0.06852    0.09940    0.42424    1.000
    Si371    Si       0.07042    0.02030    0.40836    1.000
    N372     N        0.10338    0.03994    0.43066    1.000
    Si373    Si       0.05234    0.13517    0.44227    1.000
    N374     N        0.05636    0.16317    0.40982    1.000
    Si375    Si       0.09841    0.18456    0.40857    1.000
    N376     N        0.07950    0.21761    0.43010    1.000
    Si377    Si       0.10392    0.24273    0.45605    1.000
    N378     N        0.07079    0.14392    0.47979    1.000
    N379     N        0.08087    0.10256    0.54018    1.000
    Si380    Si       0.06310    0.06128    0.53973    1.000
    N381     N        0.09061    0.04150    0.51155    1.000
    N382     N        0.07462    0.03678    0.57474    1.000
    Si383    Si       0.08858    0.05936    0.61009    1.000
    Si384    Si       0.06704    0.14068    0.52253    1.000
    N385     N        0.08489    0.17643    0.53710    1.000
    N386     N        0.08739    0.20501    0.60676    1.000
    Si387    Si       0.09200    0.17015    0.58043    1.000
    N388     N        0.05570    0.14519    0.59197    1.000
    Si389    Si       0.07260    0.24768    0.51486    1.000
    Si390    Si       0.07803    0.24677    0.59611    1.000
    Si391    Si       0.10141    0.10233    0.72814    1.000
    N392     N        0.05582    0.02961    0.68385    1.000
    N393     N        0.06913    0.08586    0.70319    1.000
    Si394    Si       0.06391    0.04750    0.72811    1.000
    N395     N        0.05482    0.07567    0.62817    1.000
    Si396    Si       0.09285    0.01116    0.67104    1.000
    N397     N        0.10554    0.02223    0.62972    1.000
    Si398    Si       0.05952    0.20739    0.71313    1.000
    Si399    Si       0.05363    0.20627    0.63717    1.000
    N400     N        0.10150    0.19410    0.72215    1.000
    N401     N        0.07109    0.22119    0.67201    1.000
    N402     N        0.05840    0.24764    0.73066    1.000
    Si403    Si       0.07854    0.10093    0.78399    1.000
    N404     N        0.09028    0.06979    0.75789    1.000
    N405     N        0.05840    0.09684    0.86182    1.000
    Si406    Si       0.08757    0.12851    0.85233    1.000
    N407     N        0.08208    0.13403    0.75200    1.000
    Si408    Si       0.07205    0.19322    0.80606    1.000
    N409     N        0.06743    0.16574    0.84061    1.000
    N410     N        0.06778    0.23735    0.80591    1.000
    N411     N        0.09816    0.23616    0.86707    1.000
    Si412    Si       0.06054    0.09493    0.97274    1.000
    N413     N        0.06119    0.04097    0.90164    1.000
    N414     N        0.07574    0.10127    0.93207    1.000
    N415     N        0.06222    0.05302    0.98367    1.000
    Si416    Si       0.10225    0.03501    0.98548    1.000
    Si417    Si       0.04941    0.08283    0.90214    1.000
    Si418    Si       0.09614    0.21522    0.95145    1.000
    N419     N        0.07944    0.24985    0.92752    1.000
    Si420    Si       0.06055    0.24218    0.88964    1.000
    N421     N        0.06983    0.19009    0.97573    1.000
    Si422    Si       0.07011    0.32938    0.11040    1.000
    Si423    Si       0.08737    0.28007    0.01117    1.000
    N424     N        0.07167    0.36631    0.08559    1.000
    N425     N        0.05252    0.30130    0.08283    1.000
    Si426    Si       0.07161    0.45686    0.03308    1.000
    N427     N        0.07752    0.44088    0.07210    1.000
    N428     N        0.06738    0.42073    0.00962    1.000
    Si429    Si       0.05306    0.40537    0.08557    1.000
    Si430    Si       0.10322    0.44907    0.10539    1.000
    N431     N        0.07707    0.34273    0.20851    1.000
    Si432    Si       0.07507    0.30758    0.18347    1.000
    Si433    Si       0.10018    0.37943    0.21596    1.000
    N434     N        0.05229    0.32231    0.14728    1.000
    N435     N        0.07819    0.41248    0.19229    1.000
    Si436    Si       0.09392    0.49471    0.16452    1.000
    Si437    Si       0.07979    0.50502    0.22892    1.000
    Si438    Si       0.06167    0.42956    0.22950    1.000
    N439     N        0.09379    0.45887    0.23746    1.000
    N440     N        0.07682    0.47711    0.12630    1.000
    N441     N        0.06125    0.48798    0.19216    1.000
    N442     N        0.07906    0.28218    0.32333    1.000
    N443     N        0.07453    0.32871    0.27367    1.000
    Si444    Si       0.05992    0.27239    0.35988    1.000
    Si445    Si       0.10207    0.35792    0.28668    1.000
    Si446    Si       0.05016    0.29650    0.29131    1.000
    N447     N        0.05793    0.26374    0.26448    1.000
    N448     N        0.07866    0.38103    0.31480    1.000
    Si449    Si       0.08996    0.38599    0.35684    1.000
    Si450    Si       0.09279    0.46614    0.28217    1.000
    N451     N        0.06067    0.44246    0.29520    1.000
    N452     N        0.05775    0.38998    0.24992    1.000
    Si453    Si       0.05090    0.39987    0.29023    1.000
    N454     N        0.07476    0.50554    0.27278    1.000
    N455     N        0.06904    0.35915    0.38213    1.000
    N456     N        0.07749    0.27421    0.47619    1.000
    N457     N        0.07650    0.33747    0.45443    1.000
    Si458    Si       0.09126    0.31381    0.48721    1.000
    Si459    Si       0.08132    0.33074    0.41238    1.000
    N460     N        0.08222    0.29048    0.39335    1.000
    Si461    Si       0.09581    0.46791    0.47861    1.000
    N462     N        0.09293    0.48018    0.39103    1.000
    N463     N        0.07220    0.42097    0.37376    1.000
    Si464    Si       0.07086    0.44725    0.40681    1.000
    N465     N        0.08805    0.43733    0.44649    1.000
    N466     N        0.07298    0.32213    0.52636    1.000
    N467     N        0.06327    0.32140    0.59674    1.000
    Si468    Si       0.08645    0.30199    0.56457    1.000
    N469     N        0.07683    0.25912    0.55431    1.000
    Si470    Si       0.04977    0.35728    0.52882    1.000
    N471     N        0.08525    0.38230    0.53543    1.000
    Si472    Si       0.05087    0.46508    0.60148    1.000
    Si473    Si       0.07287    0.42305    0.54247    1.000
    N474     N        0.06366    0.42396    0.58544    1.000
    N475     N        0.09584    0.45326    0.51879    1.000
    N476     N        0.09009    0.47122    0.61929    1.000
    Si477    Si       0.07063    0.27420    0.69401    1.000
    Si478    Si       0.08346    0.30543    0.63321    1.000
    N479     N        0.06959    0.31384    0.71413    1.000
    N480     N        0.05332    0.28816    0.65441    1.000
    N481     N        0.10147    0.37618    0.71194    1.000
    Si482    Si       0.10466    0.33380    0.69524    1.000
    N483     N        0.10815    0.33475    0.65249    1.000
    Si484    Si       0.09582    0.41182    0.68656    1.000
    N485     N        0.08871    0.48452    0.73411    1.000
    N486     N        0.06202    0.43918    0.69272    1.000
    Si487    Si       0.05177    0.41032    0.62462    1.000
    N488     N        0.09013    0.40963    0.64444    1.000
    Si489    Si       0.06376    0.44948    0.73486    1.000
    N490     N        0.10117    0.51278    0.67398    1.000
    Si491    Si       0.07639    0.32708    0.80449    1.000
    N492     N        0.09639    0.30014    0.83110    1.000
    N493     N        0.05661    0.30112    0.77679    1.000
    Si494    Si       0.06525    0.37285    0.85455    1.000
    N495     N        0.10229    0.35653    0.78526    1.000
    Si496    Si       0.09984    0.25691    0.82868    1.000
    N497     N        0.04463    0.35332    0.82162    1.000
    N498     N        0.05716    0.41513    0.85173    1.000
    N499     N        0.08903    0.42257    0.75781    1.000
    N500     N        0.08407    0.46788    0.80579    1.000
    Si501    Si       0.09847    0.50357    0.82757    1.000
    N502     N        0.05438    0.35075    0.88990    1.000
    N503     N        0.09471    0.30880    0.97582    1.000
    N504     N        0.06848    0.37113    0.95988    1.000
    Si505    Si       0.08544    0.35980    0.91880    1.000
    Si506    Si       0.05465    0.33463    0.98197    1.000
    Si507    Si       0.10591    0.27768    0.94856    1.000
    N508     N        0.05154    0.43458    0.92934    1.000
    N509     N        0.06116    0.49091    0.96076    1.000
    N510     N        0.10426    0.39792    0.91088    1.000
    Si511    Si       0.09414    0.43682    0.92900    1.000
    Si512    Si       0.09721    0.39781    0.98668    1.000
    Si513    Si       0.06629    0.59803    0.01759    1.000
    N514     N        0.07345    0.60295    0.09171    1.000
    N515     N        0.09516    0.56711    0.02356    1.000
    Si516    Si       0.08538    0.51720    0.10470    1.000
    N517     N        0.05463    0.53274    0.07811    1.000
    Si518    Si       0.10190    0.62240    0.11813    1.000
    Si519    Si       0.06644    0.64088    0.07380    1.000
    N520     N        0.07006    0.64012    0.03093    1.000
    N521     N        0.09377    0.69837    0.00829    1.000
    N522     N        0.08497    0.73315    0.06944    1.000
    Si523    Si       0.09082    0.70229    0.10367    1.000
    Si524    Si       0.05640    0.67776    0.01147    1.000
    N525     N        0.10284    0.66060    0.09360    1.000
    N526     N        0.05810    0.54429    0.22095    1.000
    N527     N        0.05682    0.61115    0.22009    1.000
    N528     N        0.09549    0.62102    0.16029    1.000
    Si529    Si       0.07453    0.57875    0.24125    1.000
    N530     N        0.10005    0.53261    0.14326    1.000
    N531     N        0.08937    0.74351    0.18926    1.000
    N532     N        0.05955    0.69797    0.13405    1.000
    Si533    Si       0.05793    0.73363    0.15818    1.000
    Si534    Si       0.06232    0.63614    0.18163    1.000
    Si535    Si       0.06564    0.64761    0.24319    1.000
    N536     N        0.07289    0.66989    0.20614    1.000
    Si537    Si       0.09744    0.70785    0.21263    1.000
    Si538    Si       0.08159    0.60664    0.30259    1.000
    N539     N        0.08039    0.53659    0.34025    1.000
    N540     N        0.05788    0.57607    0.28229    1.000
    Si541    Si       0.05734    0.53537    0.30250    1.000
    Si542    Si       0.06813    0.50753    0.37022    1.000
    N543     N        0.09632    0.62896    0.26826    1.000
    N544     N        0.05750    0.62825    0.32913    1.000
    N545     N        0.10272    0.70648    0.25689    1.000
    Si546    Si       0.08057    0.70471    0.34766    1.000
    Si547    Si       0.07265    0.73418    0.27564    1.000
    N548     N        0.05822    0.72806    0.31598    1.000
    Si549    Si       0.06525    0.63797    0.37227    1.000
    N550     N        0.05328    0.67878    0.37009    1.000
    N551     N        0.06083    0.58013    0.45073    1.000
    Si552    Si       0.07780    0.54896    0.47829    1.000
    Si553    Si       0.06920    0.57251    0.40760    1.000
    N554     N        0.09883    0.50995    0.46942    1.000
    N555     N        0.05142    0.53598    0.39855    1.000
    Si556    Si       0.05160    0.72764    0.47227    1.000
    Si557    Si       0.10083    0.66688    0.45015    1.000
    N558     N        0.09971    0.72304    0.38019    1.000
    N559     N        0.05175    0.72133    0.42871    1.000
    N560     N        0.08380    0.75554    0.48465    1.000
    N561     N        0.06058    0.65386    0.43319    1.000
    N562     N        0.08097    0.69213    0.48288    1.000
    Si563    Si       0.06895    0.74971    0.39870    1.000
    N564     N        0.08227    0.55151    0.57769    1.000
    Si565    Si       0.06494    0.58258    0.60263    1.000
    Si566    Si       0.07460    0.52094    0.54947    1.000
    N567     N        0.08107    0.62207    0.59423    1.000
    N568     N        0.05580    0.53814    0.51492    1.000
    N569     N        0.07237    0.67066    0.54458    1.000
    Si570    Si       0.05292    0.64990    0.57805    1.000
    N571     N        0.08550    0.75433    0.60688    1.000
    Si572    Si       0.05206    0.66951    0.50730    1.000
    N573     N        0.04695    0.67822    0.60897    1.000
    N574     N        0.06352    0.62474    0.67243    1.000
    N575     N        0.08216    0.55380    0.73622    1.000
    N576     N        0.09383    0.57387    0.63460    1.000
    Si577    Si       0.07784    0.52020    0.70957    1.000
    Si578    Si       0.10071    0.60417    0.66418    1.000
    N579     N        0.07734    0.62272    0.74171    1.000
    Si580    Si       0.10532    0.58970    0.73386    1.000
    Si581    Si       0.06874    0.71476    0.62259    1.000
    Si582    Si       0.06098    0.64540    0.70962    1.000
    Si583    Si       0.06888    0.72715    0.72455    1.000
    N584     N        0.10504    0.70023    0.64271    1.000
    N585     N        0.07500    0.68563    0.70970    1.000
    N586     N        0.10725    0.73981    0.70297    1.000
    Si587    Si       0.06600    0.61833    0.78403    1.000
    Si588    Si       0.06707    0.54246    0.77639    1.000
    N589     N        0.08577    0.52783    0.86034    1.000
    N590     N        0.05056    0.57699    0.79810    1.000
    N591     N        0.05025    0.63670    0.85208    1.000
    N592     N        0.09744    0.64295    0.80359    1.000
    N593     N        0.05987    0.69449    0.82020    1.000
    N594     N        0.07516    0.73530    0.76707    1.000
    Si595    Si       0.09994    0.67930    0.82752    1.000
    N596     N        0.06717    0.54404    0.92389    1.000
    N597     N        0.06114    0.59664    0.97355    1.000
    N598     N        0.06762    0.62760    0.91195    1.000
    Si599    Si       0.08900    0.63094    0.87488    1.000
    Si600    Si       0.09202    0.50995    0.93636    1.000
    Si601    Si       0.05073    0.53253    0.88527    1.000
    Si602    Si       0.07326    0.63435    0.95554    1.000
    Si603    Si       0.06279    0.74224    0.92630    1.000
    N604     N        0.09967    0.71754    0.93445    1.000
    N605     N        0.07197    0.73525    0.88409    1.000
    N606     N        0.04825    0.66785    0.97065    1.000
    Si607    Si       0.07775    0.83816    0.07120    1.000
    Si608    Si       0.07470    0.77096    0.08792    1.000
    N609     N        0.09695    0.79934    0.06253    1.000
    N610     N        0.05209    0.84613    0.03802    1.000
    N611     N        0.05244    0.76328    0.00755    1.000
    N612     N        0.04800    0.83157    0.10149    1.000
    N613     N        0.10893    0.87147    0.07635    1.000
    N614     N        0.09724    0.00024    0.01485    1.000
    N615     N        0.06221    0.91480    0.04655    1.000
    Si616    Si       0.08851    0.97767    0.10663    1.000
    N617     N        0.06019    0.97899    0.07398    1.000
    Si618    Si       0.10339    0.91139    0.06168    1.000
    Si619    Si       0.04907    0.88494    0.02026    1.000
    Si620    Si       0.06386    0.00858    0.04247    1.000
    N621     N        0.09032    0.82027    0.16451    1.000
    Si622    Si       0.05589    0.83854    0.14275    1.000
    Si623    Si       0.10140    0.77811    0.16246    1.000
    N624     N        0.07481    0.76554    0.13074    1.000
    N625     N        0.10549    0.88188    0.19970    1.000
    Si626    Si       0.06338    0.88946    0.19536    1.000
    N627     N        0.06159    0.98008    0.14081    1.000
    N628     N        0.05374    0.92911    0.20916    1.000
    N629     N        0.05172    0.88357    0.15358    1.000
    N630     N        0.09904    0.98116    0.20238    1.000
    Si631    Si       0.06699    0.00131    0.17810    1.000
    Si632    Si       0.08162    0.95305    0.23043    1.000
    N633     N        0.08380    0.80413    0.34114    1.000
    N634     N        0.09397    0.77267    0.27734    1.000
    Si635    Si       0.07544    0.80705    0.25443    1.000
    N636     N        0.05853    0.83486    0.28297    1.000
    N637     N        0.10472    0.87133    0.35052    1.000
    Si638    Si       0.04660    0.87514    0.27016    1.000
    Si639    Si       0.08924    0.91269    0.33088    1.000
    Si640    Si       0.05846    0.97192    0.30443    1.000
    N641     N        0.09813    0.95908    0.32271    1.000
    N642     N        0.06482    0.90424    0.29785    1.000
    N643     N        0.06289    0.97374    0.26252    1.000
    Si644    Si       0.09834    0.83158    0.37161    1.000
    Si645    Si       0.06870    0.86457    0.48811    1.000
    Si646    Si       0.06212    0.81892    0.42534    1.000
    N647     N        0.07961    0.85207    0.40565    1.000
    N648     N        0.08808    0.78440    0.41789    1.000
    N649     N        0.06901    0.82653    0.46866    1.000
    N650     N        0.07622    0.92280    0.37113    1.000
    Si651    Si       0.09527    0.88955    0.38980    1.000
    Si652    Si       0.05552    0.95039    0.39447    1.000
    N653     N        0.09516    0.98689    0.47229    1.000
    N654     N        0.08675    0.98307    0.39160    1.000
    Si655    Si       0.05230    0.98131    0.46404    1.000
    N656     N        0.06455    0.81429    0.57615    1.000
    Si657    Si       0.05171    0.78336    0.60183    1.000
    Si658    Si       0.10580    0.82172    0.56330    1.000
    N659     N        0.10491    0.86365    0.57728    1.000
    Si660    Si       0.07383    0.79415    0.49975    1.000
    Si661    Si       0.06927    0.87918    0.59395    1.000
    N662     N        0.10614    0.97893    0.54938    1.000
    N663     N        0.08045    0.96239    0.60656    1.000
    N664     N        0.06603    0.91153    0.56089    1.000
    Si665    Si       0.09445    0.94137    0.57041    1.000
    Si666    Si       0.08668    0.99862    0.51368    1.000
    Si667    Si       0.09049    0.00078    0.58894    1.000
    N668     N        0.10501    0.88500    0.49638    1.000
    N669     N        0.08025    0.80405    0.70004    1.000
    Si670    Si       0.07798    0.84399    0.71889    1.000
    N671     N        0.06014    0.87327    0.69465    1.000
    Si672    Si       0.04573    0.79030    0.68054    1.000
    Si673    Si       0.07539    0.94326    0.64512    1.000
    N674     N        0.06771    0.00453    0.74290    1.000
    Si675    Si       0.06710    0.96183    0.72143    1.000
    N676     N        0.08445    0.97008    0.67892    1.000
    N677     N        0.07433    0.89973    0.63081    1.000
    N678     N        0.09820    0.95300    0.75058    1.000
    Si679    Si       0.06411    0.83085    0.83672    1.000
    N680     N        0.09574    0.82802    0.80766    1.000
    N681     N        0.05606    0.87123    0.84935    1.000
    N682     N        0.05897    0.84800    0.75892    1.000
    N683     N        0.06574    0.80089    0.86788    1.000
    Si684    Si       0.06597    0.76072    0.85157    1.000
    N685     N        0.10146    0.76142    0.82786    1.000
    Si686    Si       0.07777    0.98304    0.84958    1.000
    Si687    Si       0.06034    0.90510    0.82006    1.000
    N688     N        0.07908    0.93700    0.84655    1.000
    N689     N        0.09429    0.89943    0.79393    1.000
    N690     N        0.08953    0.99435    0.81048    1.000
    Si691    Si       0.10071    0.99338    0.76957    1.000
    Si692    Si       0.05971    0.79610    0.97928    1.000
    N693     N        0.06493    0.78407    0.93674    1.000
    Si694    Si       0.06788    0.81631    0.90782    1.000
    N695     N        0.09810    0.81440    0.98926    1.000
    N696     N        0.10290    0.83798    0.91934    1.000
    Si697    Si       0.08735    0.90783    0.95613    1.000
    N698     N        0.06211    0.97006    0.90341    1.000
    N699     N        0.05336    0.88983    0.97744    1.000
    Si700    Si       0.07592    0.98239    0.94361    1.000
    N701     N        0.08797    0.90506    0.91130    1.000
    N702     N        0.09105    0.94966    0.96949    1.000
    Si703    Si       0.06267    0.92950    0.88719    1.000
    Si704    Si       0.14685    0.11262    0.06251    1.000
    N705     N        0.14779    0.07041    0.07454    1.000
    N706     N        0.15524    0.12182    0.01959    1.000
    Si707    Si       0.11223    0.05026    0.08854    1.000
    N708     N        0.11183    0.13476    0.07083    1.000
    N709     N        0.11698    0.00901    0.10236    1.000
    N710     N        0.12557    0.18230    0.00865    1.000
    Si711    Si       0.12083    0.22462    0.01760    1.000
    N712     N        0.15620    0.23588    0.03915    1.000
    Si713    Si       0.16404    0.16394    0.01075    1.000
    N714     N        0.14597    0.04087    0.23215    1.000
    N715     N        0.14467    0.03195    0.16041    1.000
    Si716    Si       0.12361    0.06901    0.15554    1.000
    N717     N        0.11083    0.08676    0.19350    1.000
    Si718    Si       0.12101    0.12982    0.19093    1.000
    N719     N        0.16056    0.09219    0.14751    1.000
    Si720    Si       0.10960    0.06626    0.23172    1.000
    Si721    Si       0.16256    0.13154    0.12929    1.000
    N722     N        0.13632    0.20621    0.18665    1.000
    N723     N        0.15654    0.14271    0.20900    1.000
    N724     N        0.12969    0.14952    0.15032    1.000
    Si725    Si       0.15357    0.21447    0.22720    1.000
    N726     N        0.15174    0.25853    0.22511    1.000
    N727     N        0.14636    0.09640    0.32836    1.000
    N728     N        0.12633    0.08715    0.26582    1.000
    N729     N        0.11668    0.02424    0.34401    1.000
    Si730    Si       0.15230    0.05278    0.33776    1.000
    Si731    Si       0.11251    0.10149    0.30199    1.000
    Si732    Si       0.16211    0.06448    0.26625    1.000
    N733     N        0.15374    0.17042    0.31251    1.000
    Si734    Si       0.11815    0.18073    0.28994    1.000
    Si735    Si       0.14621    0.19236    0.36274    1.000
    N736     N        0.12202    0.19268    0.24876    1.000
    N737     N        0.14811    0.09199    0.41427    1.000
    N738     N        0.14925    0.03757    0.48096    1.000
    N739     N        0.11757    0.09725    0.47402    1.000
    Si740    Si       0.12458    0.01146    0.45403    1.000
    Si741    Si       0.10933    0.08208    0.43264    1.000
    N742     N        0.14361    0.20680    0.40393    1.000
    Si743    Si       0.15502    0.13668    0.40999    1.000
    N744     N        0.16186    0.15142    0.37149    1.000
    Si745    Si       0.11217    0.13941    0.46856    1.000
    N746     N        0.11744    0.14783    0.42659    1.000
    N747     N        0.13886    0.16840    0.48678    1.000
    N748     N        0.14690    0.08524    0.53525    1.000
    Si749    Si       0.11944    0.10645    0.56324    1.000
    N750     N        0.11971    0.08778    0.60094    1.000
    Si751    Si       0.12505    0.06713    0.50171    1.000
    N752     N        0.16215    0.03301    0.58632    1.000
    Si753    Si       0.12215    0.19339    0.51830    1.000
    N754     N        0.13041    0.14933    0.56979    1.000
    N755     N        0.15791    0.20972    0.54045    1.000
    N756     N        0.10590    0.22605    0.49647    1.000
    Si757    Si       0.15547    0.09836    0.62385    1.000
    N758     N        0.15703    0.06609    0.65107    1.000
    Si759    Si       0.15240    0.06122    0.69386    1.000
    N760     N        0.12348    0.02923    0.69792    1.000
    N761     N        0.14209    0.09706    0.71402    1.000
    Si762    Si       0.14852    0.03035    0.62831    1.000
    N763     N        0.14985    0.13577    0.64104    1.000
    Si764    Si       0.11294    0.22103    0.68892    1.000
    N765     N        0.14990    0.20776    0.67243    1.000
    Si766    Si       0.14826    0.09968    0.81559    1.000
    N767     N        0.14922    0.06276    0.83620    1.000
    N768     N        0.10823    0.11266    0.81480    1.000
    N769     N        0.14549    0.18715    0.85346    1.000
    Si770    Si       0.14530    0.20392    0.81268    1.000
    N771     N        0.14186    0.24793    0.81851    1.000
    Si772    Si       0.11341    0.16714    0.75451    1.000
    N773     N        0.11226    0.19055    0.79086    1.000
    N774     N        0.15439    0.15573    0.75004    1.000
    Si775    Si       0.15833    0.14939    0.86625    1.000
    N776     N        0.10842    0.01383    0.94695    1.000
    N777     N        0.13376    0.06522    0.91394    1.000
    Si778    Si       0.11619    0.10425    0.91794    1.000
    Si779    Si       0.12889    0.10641    0.98827    1.000
    N780     N        0.13432    0.12795    0.95038    1.000
    N781     N        0.13516    0.06426    0.98780    1.000
    N782     N        0.11989    0.13049    0.88116    1.000
    Si783    Si       0.10438    0.03328    0.90587    1.000
    Si784    Si       0.13434    0.21634    0.88296    1.000
    N785     N        0.12710    0.19841    0.92463    1.000
    Si786    Si       0.15596    0.16585    0.93680    1.000
    N787     N        0.10982    0.24731    0.98151    1.000
    Si788    Si       0.15039    0.27592    0.05429    1.000
    N789     N        0.12445    0.29640    0.02744    1.000
    Si790    Si       0.11518    0.37223    0.09927    1.000
    N791     N        0.12022    0.36737    0.00518    1.000
    N792     N        0.11226    0.32743    0.11420    1.000
    N793     N        0.15652    0.27544    0.09931    1.000
    Si794    Si       0.15646    0.37902    0.02962    1.000
    Si795    Si       0.13637    0.32657    0.99851    1.000
    N796     N        0.14742    0.38811    0.07196    1.000
    N797     N        0.14486    0.45800    0.09192    1.000
    Si798    Si       0.15614    0.49996    0.09000    1.000
    N799     N        0.10074    0.48830    0.02011    1.000
    Si800    Si       0.13746    0.49852    0.99610    1.000
    N801     N        0.10677    0.28045    0.17904    1.000
    Si802    Si       0.14937    0.30967    0.12717    1.000
    Si803    Si       0.14634    0.28776    0.19526    1.000
    N804     N        0.13233    0.38352    0.18442    1.000
    Si805    Si       0.16595    0.35584    0.18353    1.000
    N806     N        0.16228    0.32533    0.21423    1.000
    N807     N        0.15938    0.43911    0.23161    1.000
    Si808    Si       0.13179    0.46712    0.21414    1.000
    N809     N        0.12056    0.45926    0.17234    1.000
    N810     N        0.10983    0.40861    0.12194    1.000
    Si811    Si       0.11257    0.41614    0.16555    1.000
    N812     N        0.13392    0.33608    0.30968    1.000
    Si813    Si       0.12382    0.29495    0.32235    1.000
    N814     N        0.14403    0.28453    0.35990    1.000
    N815     N        0.13200    0.26559    0.29061    1.000
    Si816    Si       0.15915    0.36880    0.32279    1.000
    N817     N        0.12202    0.38070    0.25447    1.000
    N818     N        0.13429    0.39009    0.35189    1.000
    Si819    Si       0.14308    0.41702    0.26504    1.000
    N820     N        0.13004    0.44857    0.29284    1.000
    N821     N        0.15366    0.47715    0.35028    1.000
    N822     N        0.12714    0.33382    0.40894    1.000
    Si823    Si       0.12633    0.28825    0.39971    1.000
    Si824    Si       0.15771    0.35282    0.43165    1.000
    N825     N        0.13506    0.26222    0.43435    1.000
    Si826    Si       0.13878    0.50445    0.45383    1.000
    N827     N        0.15692    0.50297    0.41448    1.000
    Si828    Si       0.16337    0.40732    0.38016    1.000
    N829     N        0.14459    0.43519    0.40669    1.000
    N830     N        0.14134    0.46224    0.46852    1.000
    Si831    Si       0.13107    0.42609    0.44677    1.000
    Si832    Si       0.13572    0.47359    0.38962    1.000
    N833     N        0.14538    0.38460    0.46053    1.000
    N834     N        0.12546    0.32417    0.56703    1.000
    Si835    Si       0.14526    0.29917    0.59783    1.000
    Si836    Si       0.11914    0.35285    0.53554    1.000
    N837     N        0.13044    0.32654    0.50069    1.000
    N838     N        0.10671    0.27846    0.61057    1.000
    N839     N        0.15139    0.38531    0.53546    1.000
    N840     N        0.14040    0.38898    0.60587    1.000
    Si841    Si       0.15574    0.40921    0.56986    1.000
    Si842    Si       0.12838    0.47377    0.54336    1.000
    N843     N        0.12960    0.44474    0.57358    1.000
    Si844    Si       0.11480    0.43300    0.61525    1.000
    Si845    Si       0.14685    0.28314    0.71772    1.000
    N846     N        0.14601    0.32487    0.70737    1.000
    Si847    Si       0.14223    0.35988    0.63669    1.000
    N848     N        0.11286    0.26338    0.69798    1.000
    N849     N        0.15571    0.38257    0.67160    1.000
    N850     N        0.12847    0.43629    0.69998    1.000
    N851     N        0.14517    0.45373    0.64192    1.000
    Si852    Si       0.16118    0.42654    0.67119    1.000
    N853     N        0.16034    0.49708    0.70159    1.000
    Si854    Si       0.12178    0.49221    0.64058    1.000
    Si855    Si       0.13196    0.47412    0.72171    1.000
    Si856    Si       0.11592    0.32361    0.86623    1.000
    N857     N        0.15788    0.30804    0.86595    1.000
    N858     N        0.15264    0.27510    0.75865    1.000
    N859     N        0.10956    0.36577    0.85381    1.000
    Si860    Si       0.12887    0.37640    0.81412    1.000
    N861     N        0.15696    0.37518    0.75216    1.000
    Si862    Si       0.11152    0.38300    0.75279    1.000
    N863     N        0.13441    0.48510    0.84825    1.000
    N864     N        0.13171    0.41888    0.80989    1.000
    Si865    Si       0.15137    0.44659    0.83548    1.000
    N866     N        0.14778    0.46187    0.76123    1.000
    Si867    Si       0.11339    0.44706    0.78378    1.000
    Si868    Si       0.15514    0.31928    0.91631    1.000
    N869     N        0.14370    0.27612    0.92927    1.000
    N870     N        0.11287    0.32920    0.90860    1.000
    N871     N        0.16037    0.33042    0.96163    1.000
    Si872    Si       0.14009    0.49221    0.89012    1.000
    Si873    Si       0.13390    0.38618    0.88339    1.000
    Si874    Si       0.15941    0.43225    0.97182    1.000
    N875     N        0.15170    0.42451    0.87265    1.000
    N876     N        0.11580    0.42970    0.96671    1.000
    N877     N        0.10770    0.47565    0.91434    1.000
    N878     N        0.14837    0.53619    0.01683    1.000
    N879     N        0.15002    0.61073    0.01137    1.000
    N880     N        0.11873    0.51791    0.07825    1.000
    Si881    Si       0.13052    0.57182    0.99789    1.000
    Si882    Si       0.10531    0.52787    0.03874    1.000
    N883     N        0.15649    0.63398    0.07813    1.000
    N884     N        0.14825    0.70500    0.05368    1.000
    Si885    Si       0.11326    0.72395    0.03561    1.000
    Si886    Si       0.14827    0.67720    0.08792    1.000
    N887     N        0.12486    0.75679    0.01266    1.000
    N888     N        0.13095    0.70755    0.12163    1.000
    N889     N        0.13571    0.59299    0.11876    1.000
    Si890    Si       0.13756    0.61604    0.17636    1.000
    Si891    Si       0.14014    0.55066    0.21516    1.000
    Si892    Si       0.13750    0.55597    0.13856    1.000
    N893     N        0.15339    0.57173    0.17753    1.000
    N894     N        0.14743    0.62843    0.21431    1.000
    N895     N        0.12146    0.51135    0.21057    1.000
    N896     N        0.11744    0.57614    0.24118    1.000
    Si897    Si       0.15801    0.74342    0.12482    1.000
    N898     N        0.15603    0.64680    0.15065    1.000
    Si899    Si       0.15831    0.66941    0.22485    1.000
    Si900    Si       0.15059    0.68987    0.15827    1.000
    N901     N        0.13540    0.69355    0.19863    1.000
    N902     N        0.15159    0.54298    0.33618    1.000
    N903     N        0.11990    0.59321    0.32063    1.000
    Si904    Si       0.13510    0.61444    0.25699    1.000
    Si905    Si       0.11519    0.56008    0.35198    1.000
    Si906    Si       0.16107    0.58367    0.32021    1.000
    Si907    Si       0.13896    0.66656    0.35649    1.000
    Si908    Si       0.13182    0.69609    0.28774    1.000
    N909     N        0.15423    0.66282    0.26833    1.000
    N910     N        0.11566    0.68857    0.32644    1.000
    Si911    Si       0.13288    0.61159    0.48485    1.000
    Si912    Si       0.12829    0.61262    0.40812    1.000
    N913     N        0.16195    0.52863    0.48100    1.000
    N914     N        0.11068    0.57440    0.39236    1.000
    N915     N        0.12049    0.62891    0.44790    1.000
    N916     N        0.11400    0.57311    0.49487    1.000
    N917     N        0.10916    0.64222    0.37974    1.000
    Si918    Si       0.13565    0.71840    0.40506    1.000
    Si919    Si       0.11644    0.72410    0.48355    1.000
    N920     N        0.16111    0.69021    0.38525    1.000
    N921     N        0.12638    0.70273    0.44478    1.000
    N922     N        0.15219    0.75148    0.49033    1.000
    N923     N        0.14276    0.59170    0.58825    1.000
    Si924    Si       0.13956    0.54414    0.51392    1.000
    Si925    Si       0.11798    0.55726    0.60083    1.000
    N926     N        0.11690    0.51575    0.53685    1.000
    Si927    Si       0.12424    0.62826    0.60236    1.000
    N928     N        0.14080    0.52346    0.61512    1.000
    N929     N        0.12794    0.63749    0.51907    1.000
    N930     N        0.15358    0.73629    0.60462    1.000
    N931     N        0.13277    0.70647    0.52595    1.000
    N932     N        0.13186    0.66625    0.58381    1.000
    Si933    Si       0.11557    0.67105    0.54458    1.000
    Si934    Si       0.13963    0.69664    0.61469    1.000
    N935     N        0.12874    0.59409    0.69784    1.000
    Si936    Si       0.11035    0.70019    0.68573    1.000
    N937     N        0.12842    0.63099    0.64604    1.000
    Si938    Si       0.15894    0.65334    0.66815    1.000
    N939     N        0.14259    0.67456    0.70064    1.000
    N940     N        0.12783    0.59169    0.77019    1.000
    Si941    Si       0.14364    0.55765    0.79576    1.000
    N942     N        0.15367    0.55695    0.83730    1.000
    Si943    Si       0.11932    0.55521    0.86581    1.000
    Si944    Si       0.16106    0.60137    0.85463    1.000
    Si945    Si       0.13466    0.63123    0.78529    1.000
    N946     N        0.11462    0.59731    0.86334    1.000
    N947     N        0.10644    0.53336    0.79701    1.000
    N948     N        0.12891    0.70663    0.81027    1.000
    Si949    Si       0.10989    0.74138    0.79179    1.000
    Si950    Si       0.16328    0.72172    0.83781    1.000
    N951     N        0.16374    0.65462    0.76523    1.000
    N952     N        0.10533    0.67189    0.86948    1.000
    N953     N        0.14106    0.58434    0.95708    1.000
    N954     N        0.12521    0.52154    0.96114    1.000
    N955     N        0.13757    0.53518    0.90060    1.000
    Si956    Si       0.15097    0.54800    0.93872    1.000
    Si957    Si       0.15023    0.62486    0.96738    1.000
    N958     N        0.15436    0.70192    0.97845    1.000
    N959     N        0.14168    0.72833    0.87718    1.000
    Si960    Si       0.11335    0.69246    0.96937    1.000
    N961     N        0.11283    0.64875    0.96297    1.000
    Si962    Si       0.10698    0.70816    0.89284    1.000
    Si963    Si       0.14757    0.86881    0.09532    1.000
    Si964    Si       0.11779    0.79927    0.02429    1.000
    N965     N        0.15660    0.81503    0.03309    1.000
    N966     N        0.15823    0.82770    0.10485    1.000
    Si967    Si       0.11814    0.96365    0.00155    1.000
    N968     N        0.12439    0.92997    0.02744    1.000
    Si969    Si       0.14448    0.93862    0.11863    1.000
    N970     N        0.10936    0.93874    0.09416    1.000
    N971     N        0.14209    0.77566    0.14901    1.000
    N972     N        0.15586    0.84592    0.17301    1.000
    Si973    Si       0.11525    0.84135    0.19176    1.000
    N974     N        0.10930    0.82422    0.23138    1.000
    N975     N        0.16188    0.86945    0.24686    1.000
    Si976    Si       0.15351    0.00121    0.12822    1.000
    N977     N        0.15698    0.91871    0.19605    1.000
    N978     N        0.15106    0.89655    0.12905    1.000
    Si979    Si       0.13631    0.89974    0.22663    1.000
    N980     N        0.13783    0.96668    0.15074    1.000
    Si981    Si       0.13676    0.96009    0.19373    1.000
    N982     N        0.12968    0.82992    0.29436    1.000
    Si983    Si       0.13592    0.86621    0.32003    1.000
    N984     N        0.14774    0.77448    0.33038    1.000
    Si985    Si       0.11467    0.79297    0.31258    1.000
    Si986    Si       0.14505    0.82971    0.25373    1.000
    N987     N        0.15901    0.96851    0.29113    1.000
    Si988    Si       0.12316    0.94531    0.28920    1.000
    N989     N        0.12972    0.90699    0.30981    1.000
    Si990    Si       0.11739    0.98254    0.35901    1.000
    N991     N        0.15780    0.96526    0.36820    1.000
    N992     N        0.11702    0.93353    0.24644    1.000
    Si993    Si       0.14248    0.79427    0.49414    1.000
    N994     N        0.13699    0.82089    0.38714    1.000
    N995     N        0.14479    0.81157    0.45500    1.000
    Si996    Si       0.13008    0.79239    0.41956    1.000
    N997     N        0.15301    0.75766    0.40261    1.000
    N998     N        0.12930    0.89851    0.41224    1.000
    N999     N        0.15960    0.00225    0.42887    1.000
    N1000    N        0.13664    0.80377    0.58790    1.000
    Si1001   Si       0.12636    0.76998    0.61348    1.000
    N1002    N        0.16324    0.87686    0.53797    1.000
    N1003    N        0.16292    0.86458    0.60883    1.000
    N1004    N        0.11012    0.80812    0.52156    1.000
    Si1005   Si       0.14325    0.88383    0.57616    1.000
    N1006    N        0.15758    0.93550    0.50562    1.000
    N1007    N        0.13502    0.92596    0.57095    1.000
    Si1008   Si       0.14654    0.89374    0.50469    1.000
    Si1009   Si       0.14628    0.95618    0.54117    1.000
    N1010    N        0.15366    0.79438    0.71228    1.000
    Si1011   Si       0.15391    0.83808    0.71749    1.000
    N1012    N        0.11662    0.85122    0.73421    1.000
    Si1013   Si       0.11605    0.78056    0.69387    1.000
    N1014    N        0.13371    0.78478    0.65401    1.000
    Si1015   Si       0.16375    0.76823    0.74784    1.000
    N1016    N        0.15311    0.91321    0.74572    1.000
    Si1017   Si       0.15375    0.00774    0.72337    1.000
    Si1018   Si       0.12489    0.79766    0.81321    1.000
    N1019    N        0.13540    0.77639    0.77786    1.000
    Si1020   Si       0.15457    0.85818    0.83351    1.000
    N1021    N        0.14773    0.86638    0.79289    1.000
    N1022    N        0.15792    0.81436    0.83617    1.000
    Si1023   Si       0.10323    0.85752    0.77755    1.000
    N1024    N        0.12568    0.87670    0.85787    1.000
    N1025    N        0.14225    0.94276    0.80501    1.000
    Si1026   Si       0.12310    0.91951    0.83643    1.000
    Si1027   Si       0.12188    0.92437    0.77190    1.000
    N1028    N        0.14393    0.99972    0.76516    1.000
    N1029    N        0.14794    0.93511    0.86936    1.000
    N1030    N        0.11168    0.00170    0.87620    1.000
    Si1031   Si       0.11685    0.83822    0.95885    1.000
    Si1032   Si       0.11680    0.87457    0.90009    1.000
    N1033    N        0.15825    0.82790    0.96161    1.000
    N1034    N        0.11903    0.88220    0.96539    1.000
    N1035    N        0.15692    0.88305    0.91391    1.000
    Si1036   Si       0.15043    0.00269    0.94713    1.000
    N1037    N        0.15236    0.98394    0.98735    1.000
    Si1038   Si       0.14654    0.97811    0.87266    1.000
    Si1039   Si       0.16178    0.88860    0.95751    1.000
    Si1040   Si       0.18376    0.04404    0.07473    1.000
    N1041    N        0.17614    0.02744    0.03236    1.000
    N1042    N        0.18922    0.02671    0.11564    1.000
    N1043    N        0.22215    0.06256    0.07106    1.000
    N1044    N        0.21174    0.07476    0.99833    1.000
    Si1045   Si       0.17573    0.04885    0.99257    1.000
    N1046    N        0.17675    0.13044    0.08871    1.000
    N1047    N        0.19225    0.17835    0.04048    1.000
    Si1048   Si       0.20901    0.14994    0.06860    1.000
    Si1049   Si       0.19658    0.21995    0.03365    1.000
    N1050    N        0.22285    0.23155    0.06518    1.000
    N1051    N        0.21655    0.23241    0.99532    1.000
    Si1052   Si       0.16548    0.02385    0.19780    1.000
    N1053    N        0.21696    0.11350    0.19773    1.000
    Si1054   Si       0.19002    0.06099    0.14655    1.000
    Si1055   Si       0.19043    0.12661    0.22979    1.000
    N1056    N        0.20172    0.04613    0.18553    1.000
    Si1057   Si       0.21967    0.07376    0.21338    1.000
    N1058    N        0.22478    0.08382    0.13546    1.000
    N1059    N        0.19460    0.08626    0.24872    1.000
    N1060    N        0.19506    0.15623    0.15032    1.000
    Si1061   Si       0.21591    0.19037    0.13314    1.000
    Si1062   Si       0.16785    0.17398    0.18230    1.000
    N1063    N        0.19277    0.19845    0.20979    1.000
    N1064    N        0.20076    0.23222    0.12843    1.000
    Si1065   Si       0.21151    0.01834    0.29530    1.000
    N1066    N        0.17456    0.04268    0.30039    1.000
    Si1067   Si       0.21444    0.01609    0.36831    1.000
    N1068    N        0.18130    0.04566    0.36892    1.000
    N1069    N        0.21062    0.12944    0.32520    1.000
    Si1070   Si       0.16933    0.13290    0.33428    1.000
    N1071    N        0.17192    0.22237    0.34529    1.000
    Si1072   Si       0.18425    0.20110    0.30855    1.000
    N1073    N        0.17823    0.21863    0.26815    1.000
    N1074    N        0.20938    0.15262    0.25798    1.000
    Si1075   Si       0.21135    0.19588    0.25390    1.000
    Si1076   Si       0.18566    0.06977    0.40535    1.000
    N1077    N        0.21616    0.09935    0.39177    1.000
    N1078    N        0.20806    0.05369    0.43887    1.000
    Si1079   Si       0.18528    0.02437    0.46065    1.000
    N1080    N        0.18642    0.14557    0.43726    1.000
    Si1081   Si       0.16910    0.23416    0.42493    1.000
    N1082    N        0.19450    0.21179    0.45358    1.000
    Si1083   Si       0.17787    0.17375    0.47049    1.000
    Si1084   Si       0.22514    0.13403    0.42018    1.000
    N1085    N        0.20322    0.04463    0.53168    1.000
    N1086    N        0.18499    0.09618    0.59167    1.000
    Si1087   Si       0.21914    0.11941    0.57815    1.000
    Si1088   Si       0.17630    0.06569    0.56066    1.000
    N1089    N        0.22834    0.10542    0.53624    1.000
    Si1090   Si       0.18016    0.24884    0.54277    1.000
    Si1091   Si       0.18812    0.23577    0.60319    1.000
    N1092    N        0.20710    0.15756    0.56444    1.000
    N1093    N        0.21770    0.23868    0.57089    1.000
    Si1094   Si       0.16787    0.17442    0.56853    1.000
    N1095    N        0.21153    0.17098    0.49657    1.000
    N1096    N        0.16959    0.19613    0.60485    1.000
    N1097    N        0.18438    0.03661    0.71124    1.000
    Si1098   Si       0.17267    0.11612    0.74146    1.000
    N1099    N        0.21205    0.13608    0.73048    1.000
    Si1100   Si       0.16417    0.17525    0.64352    1.000
    N1101    N        0.19986    0.24275    0.64239    1.000
    N1102    N        0.20869    0.19951    0.72000    1.000
    Si1103   Si       0.22447    0.16149    0.69579    1.000
    Si1104   Si       0.18973    0.22091    0.68118    1.000
    N1105    N        0.20340    0.17494    0.66284    1.000
    Si1106   Si       0.18081    0.03599    0.84712    1.000
    N1107    N        0.17377    0.09130    0.77772    1.000
    Si1108   Si       0.21370    0.07489    0.78901    1.000
    N1109    N        0.21671    0.05372    0.82743    1.000
    Si1110   Si       0.21838    0.13203    0.83020    1.000
    N1111    N        0.17434    0.12938    0.83230    1.000
    N1112    N        0.18091    0.20736    0.78679    1.000
    Si1113   Si       0.19184    0.17850    0.75543    1.000
    Si1114   Si       0.17567    0.25161    0.78471    1.000
    Si1115   Si       0.18124    0.06359    0.92160    1.000
    N1116    N        0.18393    0.03124    0.95255    1.000
    N1117    N        0.20952    0.09568    0.93169    1.000
    N1118    N        0.19774    0.04735    0.88607    1.000
    Si1119   Si       0.21739    0.12824    0.90508    1.000
    N1120    N        0.16805    0.24431    0.87874    1.000
    Si1121   Si       0.21315    0.20092    0.96411    1.000
    N1122    N        0.20715    0.22529    0.92789    1.000
    N1123    N        0.18290    0.15411    0.90244    1.000
    N1124    N        0.17987    0.17657    0.97223    1.000
    Si1125   Si       0.20866    0.31661    0.02823    1.000
    N1126    N        0.19209    0.28650    0.05256    1.000
    N1127    N        0.17244    0.33932    0.02316    1.000
    Si1128   Si       0.19906    0.25912    0.09080    1.000
    N1129    N        0.20201    0.43057    0.06065    1.000
    N1130    N        0.17605    0.40831    0.00463    1.000
    Si1131   Si       0.21465    0.41620    0.02184    1.000
    Si1132   Si       0.16843    0.42224    0.08912    1.000
    Si1133   Si       0.21837    0.46974    0.07649    1.000
    N1134    N        0.19141    0.50170    0.06417    1.000
    N1135    N        0.21356    0.47642    0.11911    1.000
    Si1136   Si       0.20186    0.37547    0.13697    1.000
    Si1137   Si       0.20851    0.27131    0.14709    1.000
    N1138    N        0.20421    0.37598    0.17967    1.000
    Si1139   Si       0.19743    0.32231    0.24163    1.000
    N1140    N        0.16993    0.34626    0.13668    1.000
    N1141    N        0.17009    0.28789    0.16039    1.000
    Si1142   Si       0.22291    0.44097    0.14266    1.000
    N1143    N        0.19163    0.41461    0.12469    1.000
    Si1144   Si       0.20255    0.44065    0.22412    1.000
    N1145    N        0.21038    0.48235    0.23643    1.000
    N1146    N        0.21706    0.45081    0.18319    1.000
    N1147    N        0.21774    0.40029    0.23832    1.000
    N1148    N        0.19435    0.35234    0.34207    1.000
    N1149    N        0.21165    0.28541    0.33563    1.000
    N1150    N        0.20701    0.34657    0.27853    1.000
    N1151    N        0.20628    0.28205    0.25599    1.000
    Si1152   Si       0.21722    0.32453    0.31488    1.000
    Si1153   Si       0.18355    0.26256    0.35970    1.000
    Si1154   Si       0.16874    0.26175    0.26704    1.000
    Si1155   Si       0.21047    0.38937    0.27791    1.000
    N1156    N        0.19332    0.47760    0.30210    1.000
    N1157    N        0.19213    0.42522    0.35138    1.000
    N1158    N        0.17252    0.40104    0.29493    1.000
    Si1159   Si       0.21334    0.50315    0.27459    1.000
    Si1160   Si       0.16882    0.44523    0.31908    1.000
    N1161    N        0.18269    0.37548    0.40457    1.000
    Si1162   Si       0.21397    0.36035    0.38122    1.000
    N1163    N        0.17824    0.31655    0.44784    1.000
    Si1164   Si       0.20923    0.29657    0.42526    1.000
    N1165    N        0.19309    0.26220    0.40115    1.000
    Si1166   Si       0.17035    0.31235    0.49174    1.000
    Si1167   Si       0.17833    0.46224    0.49147    1.000
    N1168    N        0.20980    0.48611    0.47394    1.000
    N1169    N        0.19437    0.42197    0.49165    1.000
    N1170    N        0.18823    0.27903    0.51262    1.000
    N1171    N        0.19448    0.34964    0.50144    1.000
    N1172    N        0.16807    0.32907    0.61934    1.000
    N1173    N        0.16544    0.26597    0.58262    1.000
    N1174    N        0.20030    0.41920    0.57715    1.000
    Si1175   Si       0.20504    0.45843    0.55715    1.000
    N1176    N        0.17204    0.47395    0.53388    1.000
    Si1177   Si       0.17058    0.38576    0.49603    1.000
    Si1178   Si       0.16652    0.36217    0.71092    1.000
    N1179    N        0.18184    0.25975    0.70171    1.000
    Si1180   Si       0.21142    0.32920    0.62583    1.000
    N1181    N        0.20892    0.36723    0.70901    1.000
    N1182    N        0.22441    0.30772    0.66208    1.000
    Si1183   Si       0.22065    0.26871    0.71965    1.000
    Si1184   Si       0.21990    0.40775    0.72353    1.000
    N1185    N        0.19861    0.43214    0.69200    1.000
    Si1186   Si       0.18288    0.34321    0.85732    1.000
    N1187    N        0.19939    0.27412    0.81683    1.000
    Si1188   Si       0.18942    0.37607    0.78422    1.000
    N1189    N        0.16897    0.36332    0.82070    1.000
    Si1190   Si       0.17054    0.27105    0.84591    1.000
    N1191    N        0.22487    0.33797    0.86364    1.000
    N1192    N        0.18794    0.45620    0.81636    1.000
    N1193    N        0.20435    0.41334    0.76374    1.000
    Si1194   Si       0.18695    0.45059    0.77318    1.000
    N1195    N        0.21747    0.48207    0.76884    1.000
    Si1196   Si       0.22145    0.48285    0.81151    1.000
    N1197    N        0.16799    0.36186    0.89519    1.000
    N1198    N        0.19985    0.30230    0.92133    1.000
    Si1199   Si       0.20464    0.32485    0.95985    1.000
    Si1200   Si       0.18202    0.25997    0.91845    1.000
    N1201    N        0.22252    0.36284    0.94821    1.000
    N1202    N        0.17899    0.41981    0.93469    1.000
    Si1203   Si       0.21191    0.48490    0.98493    1.000
    Si1204   Si       0.19900    0.38306    0.91799    1.000
    Si1205   Si       0.21248    0.50768    0.91733    1.000
    Si1206   Si       0.18724    0.43876    0.89566    1.000
    N1207    N        0.21997    0.40841    0.88949    1.000
    N1208    N        0.17003    0.47346    0.98588    1.000
    N1209    N        0.18268    0.48268    0.89916    1.000
    Si1210   Si       0.18913    0.53585    0.03541    1.000
    N1211    N        0.19790    0.57462    0.05154    1.000
    Si1212   Si       0.17455    0.61393    0.04526    1.000
    N1213    N        0.21428    0.52604    0.00146    1.000
    Si1214   Si       0.16882    0.62108    0.11743    1.000
    N1215    N        0.20681    0.60321    0.12026    1.000
    Si1216   Si       0.22490    0.57596    0.09064    1.000
    N1217    N        0.21282    0.63672    0.04402    1.000
    Si1218   Si       0.18269    0.73307    0.05637    1.000
    N1219    N        0.19181    0.67635    0.10301    1.000
    N1220    N        0.19271    0.74768    0.01639    1.000
    N1221    N        0.21929    0.70827    0.05522    1.000
    N1222    N        0.16702    0.52894    0.12111    1.000
    N1223    N        0.21213    0.52311    0.17372    1.000
    Si1224   Si       0.19541    0.56117    0.18900    1.000
    N1225    N        0.18131    0.55035    0.23017    1.000
    Si1226   Si       0.20796    0.51741    0.13086    1.000
    N1227    N        0.18309    0.71840    0.15163    1.000
    N1228    N        0.19757    0.68446    0.22285    1.000
    Si1229   Si       0.21521    0.69396    0.13646    1.000
    Si1230   Si       0.19965    0.57004    0.26382    1.000
    N1231    N        0.20223    0.54089    0.29472    1.000
    N1232    N        0.21057    0.51732    0.35788    1.000
    N1233    N        0.19727    0.58606    0.34408    1.000
    N1234    N        0.17316    0.60170    0.28030    1.000
    Si1235   Si       0.22251    0.55243    0.33342    1.000
    Si1236   Si       0.19239    0.62317    0.36609    1.000
    Si1237   Si       0.17676    0.50870    0.32826    1.000
    N1238    N        0.20141    0.74348    0.34682    1.000
    Si1239   Si       0.18423    0.64554    0.29441    1.000
    Si1240   Si       0.20437    0.70471    0.26207    1.000
    N1241    N        0.21858    0.67201    0.28640    1.000
    Si1242   Si       0.18088    0.75503    0.30933    1.000
    N1243    N        0.16959    0.72244    0.28480    1.000
    N1244    N        0.16966    0.64499    0.33575    1.000
    N1245    N        0.17845    0.60605    0.47659    1.000
    N1246    N        0.21517    0.54162    0.43025    1.000
    Si1247   Si       0.19700    0.62444    0.44068    1.000
    Si1248   Si       0.20306    0.52860    0.46992    1.000
    N1249    N        0.17181    0.61385    0.40557    1.000
    Si1250   Si       0.19696    0.51392    0.40128    1.000
    Si1251   Si       0.22322    0.68379    0.47778    1.000
    N1252    N        0.22103    0.65059    0.38049    1.000
    N1253    N        0.20326    0.66852    0.44260    1.000
    Si1254   Si       0.20237    0.68397    0.40032    1.000
    N1255    N        0.20574    0.55956    0.59170    1.000
    Si1256   Si       0.20130    0.58502    0.50884    1.000
    Si1257   Si       0.18540    0.59371    0.56992    1.000
    N1258    N        0.19355    0.62706    0.60099    1.000
    N1259    N        0.22005    0.60587    0.54203    1.000
    N1260    N        0.17109    0.56821    0.53320    1.000
    Si1261   Si       0.18039    0.54036    0.62100    1.000
    N1262    N        0.20375    0.70078    0.51495    1.000
    Si1263   Si       0.19540    0.74065    0.59262    1.000
    N1264    N        0.20634    0.69790    0.58187    1.000
    Si1265   Si       0.20295    0.66864    0.61219    1.000
    Si1266   Si       0.17049    0.72785    0.52144    1.000
    N1267    N        0.18941    0.75822    0.55124    1.000
    N1268    N        0.19224    0.55456    0.70966    1.000
    Si1269   Si       0.20455    0.60543    0.63943    1.000
    N1270    N        0.19122    0.62506    0.68104    1.000
    Si1271   Si       0.19548    0.51755    0.68903    1.000
    N1272    N        0.18021    0.57149    0.65061    1.000
    Si1273   Si       0.16969    0.58440    0.69068    1.000
    N1274    N        0.19975    0.50898    0.64565    1.000
    N1275    N        0.21000    0.61074    0.74525    1.000
    N1276    N        0.17124    0.68227    0.63835    1.000
    Si1277   Si       0.22245    0.63443    0.70905    1.000
    Si1278   Si       0.17145    0.68404    0.73209    1.000
    N1279    N        0.21454    0.67494    0.72477    1.000
    N1280    N        0.16728    0.72574    0.74378    1.000
    N1281    N        0.18517    0.55397    0.78420    1.000
    Si1282   Si       0.19707    0.55322    0.82902    1.000
    N1283    N        0.20491    0.58591    0.85935    1.000
    Si1284   Si       0.20780    0.56820    0.74920    1.000
    N1285    N        0.16603    0.61968    0.81482    1.000
    N1286    N        0.22167    0.51822    0.83364    1.000
    Si1287   Si       0.21817    0.75211    0.79330    1.000
    Si1288   Si       0.19597    0.63175    0.78363    1.000
    N1289    N        0.18893    0.68700    0.84404    1.000
    N1290    N        0.19041    0.75484    0.82825    1.000
    Si1291   Si       0.21019    0.61493    0.89230    1.000
    N1292    N        0.19332    0.54065    0.94053    1.000
    Si1293   Si       0.16049    0.74589    0.98855    1.000
    N1294    N        0.17078    0.63153    0.88464    1.000
    N1295    N        0.18917    0.64071    0.95665    1.000
    Si1296   Si       0.18786    0.67191    0.88493    1.000
    N1297    N        0.18216    0.70172    0.91678    1.000
    Si1298   Si       0.18897    0.68505    0.95692    1.000
    Si1299   Si       0.16820    0.74063    0.91225    1.000
    Si1300   Si       0.17454    0.80350    0.07334    1.000
    N1301    N        0.21531    0.81450    0.06908    1.000
    N1302    N        0.17484    0.87791    0.99937    1.000
    N1303    N        0.17101    0.76152    0.08690    1.000
    Si1304   Si       0.21484    0.88343    0.07772    1.000
    Si1305   Si       0.17804    0.83507    0.99923    1.000
    N1306    N        0.21962    0.81973    0.99999    1.000
    N1307    N        0.17262    0.89314    0.06509    1.000
    Si1308   Si       0.20256    0.95087    0.07289    1.000
    N1309    N        0.18820    0.94937    0.03239    1.000
    Si1310   Si       0.18599    0.98871    0.01616    1.000
    N1311    N        0.17516    0.96522    0.10356    1.000
    Si1312   Si       0.16438    0.91143    0.02667    1.000
    N1313    N        0.20656    0.80333    0.14461    1.000
    N1314    N        0.16766    0.79639    0.23791    1.000
    Si1315   Si       0.16377    0.81380    0.14453    1.000
    Si1316   Si       0.16792    0.88727    0.16745    1.000
    Si1317   Si       0.21189    0.91860    0.20836    1.000
    N1318    N        0.16689    0.98380    0.21282    1.000
    N1319    N        0.20786    0.90019    0.16781    1.000
    N1320    N        0.20486    0.78800    0.29565    1.000
    N1321    N        0.17277    0.86100    0.34025    1.000
    N1322    N        0.21923    0.86473    0.29355    1.000
    Si1323   Si       0.20463    0.78214    0.25301    1.000
    Si1324   Si       0.20089    0.88576    0.25985    1.000
    Si1325   Si       0.17457    0.77177    0.36757    1.000
    Si1326   Si       0.20708    0.88531    0.33061    1.000
    N1327    N        0.20447    0.92816    0.32739    1.000
    N1328    N        0.21219    0.99119    0.33016    1.000
    N1329    N        0.21454    0.99514    0.25731    1.000
    Si1330   Si       0.17780    0.96178    0.32926    1.000
    Si1331   Si       0.18025    0.96842    0.25080    1.000
    N1332    N        0.19671    0.92770    0.24965    1.000
    Si1333   Si       0.17471    0.83988    0.37917    1.000
    N1334    N        0.19981    0.80413    0.38023    1.000
    Si1335   Si       0.18057    0.83478    0.46513    1.000
    N1336    N        0.19137    0.86800    0.40707    1.000
    N1337    N        0.22221    0.83292    0.45412    1.000
    N1338    N        0.16775    0.87655    0.46990    1.000
    N1339    N        0.20047    0.99225    0.48370    1.000
    Si1340   Si       0.19170    0.94739    0.48062    1.000
    Si1341   Si       0.18062    0.97030    0.40697    1.000
    N1342    N        0.18469    0.93676    0.43891    1.000
    N1343    N        0.22027    0.98559    0.39670    1.000
    Si1344   Si       0.16821    0.89656    0.43096    1.000
    Si1345   Si       0.20579    0.86266    0.54351    1.000
    N1346    N        0.20390    0.82423    0.56281    1.000
    Si1347   Si       0.20463    0.79307    0.53263    1.000
    N1348    N        0.17936    0.81479    0.50415    1.000
    Si1349   Si       0.17521    0.82543    0.59484    1.000
    N1350    N        0.17945    0.98178    0.55410    1.000
    Si1351   Si       0.18589    0.99704    0.59304    1.000
    Si1352   Si       0.20519    0.00168    0.52651    1.000
    N1353    N        0.19061    0.80378    0.62867    1.000
    N1354    N        0.20861    0.77979    0.68437    1.000
    Si1355   Si       0.17838    0.87824    0.64896    1.000
    Si1356   Si       0.17270    0.80133    0.67002    1.000
    N1357    N        0.18754    0.84906    0.74212    1.000
    N1358    N        0.16681    0.84733    0.67628    1.000
    N1359    N        0.22129    0.88058    0.63621    1.000
    N1360    N        0.16527    0.98901    0.63114    1.000
    N1361    N        0.21190    0.93656    0.72895    1.000
    Si1362   Si       0.17240    0.92933    0.71275    1.000
    N1363    N        0.17091    0.91624    0.66995    1.000
    Si1364   Si       0.17673    0.95799    0.65986    1.000
    N1365    N        0.21996    0.96557    0.66276    1.000
    N1366    N        0.16045    0.96921    0.70125    1.000
    Si1367   Si       0.18761    0.78992    0.85485    1.000
    N1368    N        0.20478    0.78028    0.75964    1.000
    N1369    N        0.18942    0.87651    0.84827    1.000
    Si1370   Si       0.21805    0.82241    0.75844    1.000
    Si1371   Si       0.17561    0.88277    0.76506    1.000
    N1372    N        0.20676    0.90364    0.78758    1.000
    N1373    N        0.20766    0.97827    0.78353    1.000
    N1374    N        0.16991    0.99583    0.83926    1.000
    Si1375   Si       0.16635    0.97967    0.79846    1.000
    N1376    N        0.21927    0.81561    0.93275    1.000
    Si1377   Si       0.17851    0.80124    0.93388    1.000
    N1378    N        0.17768    0.78163    0.89564    1.000
    N1379    N        0.16672    0.76301    0.95044    1.000
    Si1380   Si       0.17441    0.90183    0.87979    1.000
    N1381    N        0.16356    0.97974    0.91343    1.000
    N1382    N        0.17992    0.92684    0.95794    1.000
    N1383    N        0.21062    0.92090    0.89506    1.000
    Si1384   Si       0.19786    0.95088    0.92427    1.000
    Si1385   Si       0.25074    0.06908    0.10379    1.000
    Si1386   Si       0.23455    0.08361    0.03548    1.000
    N1387    N        0.27529    0.07151    0.02190    1.000
    N1388    N        0.26046    0.02700    0.11646    1.000
    N1389    N        0.23393    0.12364    0.04545    1.000
    Si1390   Si       0.25354    0.20386    0.07460    1.000
    N1391    N        0.27454    0.18938    0.04096    1.000
    N1392    N        0.23119    0.17373    0.09706    1.000
    Si1393   Si       0.27755    0.20055    0.99777    1.000
    N1394    N        0.27831    0.22860    0.10025    1.000
    N1395    N        0.28499    0.24534    0.99835    1.000
    N1396    N        0.25925    0.07027    0.23007    1.000
    Si1397   Si       0.22483    0.12322    0.15732    1.000
    N1398    N        0.26735    0.13297    0.15539    1.000
    N1399    N        0.24585    0.19797    0.16548    1.000
    N1400    N        0.24653    0.22273    0.23804    1.000
    Si1401   Si       0.22828    0.22532    0.19676    1.000
    Si1402   Si       0.27879    0.17077    0.17724    1.000
    Si1403   Si       0.26182    0.07825    0.27081    1.000
    N1404    N        0.26332    0.09104    0.34229    1.000
    N1405    N        0.26542    0.12330    0.27809    1.000
    N1406    N        0.24689    0.04474    0.29618    1.000
    Si1407   Si       0.23687    0.12057    0.35860    1.000
    Si1408   Si       0.27686    0.05052    0.33007    1.000
    N1409    N        0.25510    0.03095    0.36496    1.000
    Si1410   Si       0.26694    0.21309    0.31312    1.000
    N1411    N        0.27361    0.21680    0.35581    1.000
    N1412    N        0.26072    0.25540    0.29957    1.000
    Si1413   Si       0.23720    0.15013    0.29692    1.000
    N1414    N        0.27309    0.15510    0.33109    1.000
    N1415    N        0.22696    0.19326    0.30085    1.000
    N1416    N        0.24783    0.11506    0.45286    1.000
    Si1417   Si       0.24551    0.07026    0.45083    1.000
    N1418    N        0.28015    0.06134    0.42537    1.000
    N1419    N        0.26145    0.05516    0.49077    1.000
    Si1420   Si       0.23367    0.20467    0.47377    1.000
    Si1421   Si       0.27675    0.17557    0.36930    1.000
    Si1422   Si       0.27638    0.13973    0.47428    1.000
    N1423    N        0.26991    0.18035    0.45862    1.000
    N1424    N        0.24546    0.15302    0.38756    1.000
    N1425    N        0.26324    0.05403    0.56205    1.000
    N1426    N        0.25588    0.11386    0.60081    1.000
    Si1427   Si       0.24018    0.06374    0.52834    1.000
    Si1428   Si       0.25925    0.01296    0.57276    1.000
    Si1429   Si       0.28360    0.08438    0.58779    1.000
    N1430    N        0.24803    0.23634    0.50011    1.000
    N1431    N        0.27493    0.14914    0.51776    1.000
    Si1432   Si       0.23199    0.14906    0.52889    1.000
    N1433    N        0.28289    0.25553    0.55742    1.000
    N1434    N        0.25482    0.05824    0.68685    1.000
    Si1435   Si       0.22800    0.03980    0.71530    1.000
    N1436    N        0.28406    0.12199    0.73910    1.000
    N1437    N        0.26502    0.25598    0.62643    1.000
    N1438    N        0.26679    0.17247    0.69029    1.000
    Si1439   Si       0.28086    0.21483    0.69553    1.000
    N1440    N        0.24771    0.24635    0.69212    1.000
    N1441    N        0.23455    0.11276    0.79333    1.000
    N1442    N        0.22968    0.04757    0.75927    1.000
    Si1443   Si       0.23253    0.06575    0.86640    1.000
    N1444    N        0.22589    0.10824    0.86553    1.000
    N1445    N        0.22062    0.24986    0.76054    1.000
    Si1446   Si       0.24639    0.13501    0.75750    1.000
    Si1447   Si       0.25885    0.18995    0.80753    1.000
    N1448    N        0.23956    0.17791    0.77091    1.000
    N1449    N        0.24239    0.16685    0.84092    1.000
    N1450    N        0.25539    0.23050    0.81774    1.000
    Si1451   Si       0.27233    0.24664    0.85631    1.000
    Si1452   Si       0.24251    0.21492    0.74542    1.000
    Si1453   Si       0.22604    0.01200    0.96017    1.000
    N1454    N        0.25342    0.04527    0.95531    1.000
    N1455    N        0.26982    0.05942    0.88934    1.000
    N1456    N        0.26605    0.11608    0.97176    1.000
    Si1457   Si       0.23600    0.08391    0.96509    1.000
    Si1458   Si       0.28000    0.03512    0.92345    1.000
    Si1459   Si       0.27930    0.15201    0.94982    1.000
    N1460    N        0.26938    0.21450    0.88372    1.000
    N1461    N        0.25463    0.15066    0.91128    1.000
    Si1462   Si       0.24443    0.23741    0.91026    1.000
    N1463    N        0.25244    0.18566    0.96687    1.000
    Si1464   Si       0.26847    0.17095    0.87595    1.000
    Si1465   Si       0.26370    0.36221    0.03841    1.000
    N1466    N        0.23491    0.33604    0.05590    1.000
    Si1467   Si       0.24598    0.32222    0.09721    1.000
    N1468    N        0.23187    0.28437    0.11323    1.000
    Si1469   Si       0.27351    0.26908    0.11473    1.000
    N1470    N        0.24252    0.38628    0.00836    1.000
    Si1471   Si       0.26885    0.38653    0.11319    1.000
    N1472    N        0.26128    0.47129    0.06868    1.000
    Si1473   Si       0.27077    0.46881    0.02679    1.000
    N1474    N        0.23293    0.45496    0.01024    1.000
    N1475    N        0.28041    0.38721    0.07075    1.000
    N1476    N        0.23665    0.35792    0.12082    1.000
    N1477    N        0.23122    0.26735    0.18403    1.000
    N1478    N        0.23387    0.33243    0.22015    1.000
    Si1479   Si       0.25672    0.29863    0.20327    1.000
    Si1480   Si       0.23480    0.37423    0.20929    1.000
    N1481    N        0.27758    0.28075    0.23958    1.000
    Si1482   Si       0.27744    0.48569    0.24157    1.000
    N1483    N        0.27164    0.38972    0.19154    1.000
    N1484    N        0.26121    0.42759    0.12405    1.000
    Si1485   Si       0.22788    0.49063    0.19715    1.000
    N1486    N        0.27019    0.49484    0.19879    1.000
    N1487    N        0.26115    0.32363    0.32117    1.000
    Si1488   Si       0.25729    0.28084    0.33474    1.000
    Si1489   Si       0.24467    0.26172    0.26023    1.000
    N1490    N        0.25890    0.45658    0.34552    1.000
    N1491    N        0.24172    0.40792    0.30204    1.000
    Si1492   Si       0.23453    0.41979    0.34425    1.000
    Si1493   Si       0.28049    0.41779    0.28393    1.000
    Si1494   Si       0.24529    0.48945    0.36856    1.000
    N1495    N        0.27029    0.44486    0.25043    1.000
    N1496    N        0.27382    0.27824    0.37413    1.000
    Si1497   Si       0.27308    0.31472    0.39621    1.000
    N1498    N        0.23827    0.27961    0.45143    1.000
    N1499    N        0.23143    0.32585    0.39952    1.000
    Si1500   Si       0.28226    0.27565    0.45081    1.000
    N1501    N        0.22800    0.48167    0.40664    1.000
    N1502    N        0.24375    0.38932    0.37246    1.000
    Si1503   Si       0.24317    0.47799    0.44666    1.000
    N1504    N        0.25948    0.44099    0.46263    1.000
    Si1505   Si       0.26216    0.33434    0.58002    1.000
    N1506    N        0.23399    0.30564    0.59507    1.000
    N1507    N        0.24871    0.31197    0.51019    1.000
    N1508    N        0.23707    0.36327    0.56027    1.000
    Si1509   Si       0.23447    0.35278    0.51810    1.000
    Si1510   Si       0.25116    0.26571    0.58673    1.000
    Si1511   Si       0.22949    0.27619    0.49485    1.000
    N1512    N        0.25684    0.38625    0.50238    1.000
    N1513    N        0.24119    0.44945    0.53281    1.000
    N1514    N        0.26697    0.42327    0.59417    1.000
    Si1515   Si       0.26350    0.45900    0.56879    1.000
    Si1516   Si       0.23342    0.39479    0.59035    1.000
    N1517    N        0.23064    0.48161    0.58693    1.000
    Si1518   Si       0.23953    0.42619    0.49560    1.000
    N1519    N        0.23151    0.36838    0.62715    1.000
    N1520    N        0.27493    0.34298    0.68169    1.000
    Si1521   Si       0.27344    0.36697    0.64544    1.000
    Si1522   Si       0.23576    0.33409    0.69620    1.000
    N1523    N        0.23341    0.30880    0.72905    1.000
    Si1524   Si       0.23630    0.26785    0.65540    1.000
    Si1525   Si       0.28528    0.43733    0.63101    1.000
    N1526    N        0.22933    0.49421    0.70496    1.000
    N1527    N        0.25714    0.43270    0.71755    1.000
    Si1528   Si       0.24452    0.50475    0.74501    1.000
    Si1529   Si       0.23500    0.45635    0.68681    1.000
    Si1530   Si       0.23667    0.49775    0.62686    1.000
    N1531    N        0.25483    0.46160    0.64923    1.000
    N1532    N        0.28521    0.49257    0.74466    1.000
    Si1533   Si       0.25106    0.32832    0.76356    1.000
    Si1534   Si       0.25004    0.35837    0.83009    1.000
    N1535    N        0.26429    0.29718    0.79282    1.000
    Si1536   Si       0.23695    0.26523    0.79881    1.000
    N1537    N        0.22832    0.35230    0.79243    1.000
    N1538    N        0.25942    0.40226    0.83285    1.000
    N1539    N        0.26144    0.46914    0.82129    1.000
    Si1540   Si       0.25943    0.49533    0.85914    1.000
    N1541    N        0.23813    0.26771    0.87896    1.000
    Si1542   Si       0.23450    0.30796    0.89691    1.000
    N1543    N        0.27607    0.31715    0.90694    1.000
    Si1544   Si       0.24703    0.26427    0.98574    1.000
    N1545    N        0.25848    0.26422    0.94190    1.000
    N1546    N        0.22514    0.30240    0.99144    1.000
    N1547    N        0.23622    0.48505    0.94847    1.000
    N1548    N        0.26845    0.42198    0.94708    1.000
    N1549    N        0.26562    0.45717    0.88649    1.000
    Si1550   Si       0.26645    0.46061    0.92898    1.000
    Si1551   Si       0.25452    0.38493    0.96654    1.000
    Si1552   Si       0.25963    0.41557    0.87393    1.000
    N1553    N        0.25709    0.59189    0.06775    1.000
    N1554    N        0.23783    0.54098    0.11012    1.000
    Si1555   Si       0.23134    0.59919    0.03219    1.000
    Si1556   Si       0.27928    0.53283    0.11602    1.000
    N1557    N        0.26024    0.66527    0.08986    1.000
    N1558    N        0.27031    0.70655    0.01363    1.000
    Si1559   Si       0.23011    0.72076    0.01678    1.000
    Si1560   Si       0.22026    0.66869    0.07159    1.000
    N1561    N        0.27230    0.61176    0.14190    1.000
    Si1562   Si       0.25422    0.60205    0.21995    1.000
    Si1563   Si       0.23112    0.61896    0.15330    1.000
    N1564    N        0.22483    0.59440    0.18895    1.000
    N1565    N        0.25131    0.71871    0.13295    1.000
    N1566    N        0.22524    0.66083    0.16320    1.000
    N1567    N        0.25898    0.64448    0.22509    1.000
    Si1568   Si       0.25679    0.74532    0.22546    1.000
    Si1569   Si       0.23331    0.67216    0.20310    1.000
    Si1570   Si       0.27056    0.73332    0.16868    1.000
    N1571    N        0.25916    0.70700    0.20318    1.000
    N1572    N        0.26246    0.55622    0.32037    1.000
    Si1573   Si       0.26403    0.55411    0.27814    1.000
    N1574    N        0.24003    0.58235    0.25695    1.000
    N1575    N        0.25545    0.51338    0.26891    1.000
    N1576    N        0.28557    0.50549    0.36297    1.000
    N1577    N        0.27014    0.63587    0.32163    1.000
    N1578    N        0.25840    0.69301    0.34094    1.000
    Si1579   Si       0.26035    0.67424    0.30046    1.000
    Si1580   Si       0.24237    0.72730    0.36020    1.000
    Si1581   Si       0.26102    0.65509    0.36352    1.000
    N1582    N        0.22340    0.74223    0.25107    1.000
    Si1583   Si       0.24940    0.56868    0.42746    1.000
    Si1584   Si       0.26956    0.54213    0.48611    1.000
    Si1585   Si       0.27167    0.61417    0.46836    1.000
    N1586    N        0.23633    0.60776    0.43945    1.000
    N1587    N        0.27891    0.56210    0.39519    1.000
    N1588    N        0.22854    0.55418    0.49241    1.000
    N1589    N        0.28473    0.57143    0.45687    1.000
    N1590    N        0.27184    0.50731    0.46033    1.000
    N1591    N        0.23504    0.71396    0.40152    1.000
    Si1592   Si       0.25918    0.73213    0.43163    1.000
    N1593    N        0.25347    0.71398    0.47122    1.000
    N1594    N        0.24423    0.64759    0.48913    1.000
    Si1595   Si       0.24801    0.56375    0.60363    1.000
    N1596    N        0.27610    0.57812    0.57464    1.000
    Si1597   Si       0.25189    0.63303    0.53039    1.000
    Si1598   Si       0.23321    0.70190    0.54978    1.000
    Si1599   Si       0.26969    0.74344    0.59718    1.000
    N1600    N        0.26551    0.66964    0.54951    1.000
    N1601    N        0.25843    0.73806    0.55445    1.000
    N1602    N        0.23138    0.75136    0.61672    1.000
    Si1603   Si       0.27754    0.61422    0.65585    1.000
    N1604    N        0.26277    0.53179    0.62838    1.000
    N1605    N        0.24763    0.59636    0.63406    1.000
    N1606    N        0.26307    0.62936    0.69428    1.000
    N1607    N        0.28384    0.71334    0.66871    1.000
    N1608    N        0.25259    0.73941    0.72478    1.000
    Si1609   Si       0.27955    0.68201    0.63895    1.000
    N1610    N        0.24011    0.66717    0.63237    1.000
    Si1611   Si       0.24356    0.69974    0.74618    1.000
    N1612    N        0.28062    0.67697    0.74575    1.000
    Si1613   Si       0.26951    0.62289    0.80092    1.000
    N1614    N        0.27370    0.58213    0.81337    1.000
    N1615    N        0.24590    0.54768    0.75253    1.000
    Si1616   Si       0.27908    0.56802    0.77081    1.000
    N1617    N        0.27956    0.61170    0.75881    1.000
    N1618    N        0.25905    0.68860    0.84555    1.000
    N1619    N        0.23179    0.64344    0.80467    1.000
    N1620    N        0.22904    0.71054    0.78616    1.000
    Si1621   Si       0.22556    0.68370    0.82047    1.000
    Si1622   Si       0.22529    0.55441    0.96896    1.000
    Si1623   Si       0.25872    0.55951    0.91106    1.000
    N1624    N        0.24571    0.52169    0.89393    1.000
    N1625    N        0.26802    0.54869    0.95503    1.000
    N1626    N        0.23148    0.59349    0.92366    1.000
    Si1627   Si       0.22783    0.62208    0.95803    1.000
    N1628    N        0.22920    0.59259    0.98923    1.000
    Si1629   Si       0.27921    0.75350    0.92288    1.000
    Si1630   Si       0.26535    0.69335    0.97265    1.000
    N1631    N        0.25574    0.72283    0.90663    1.000
    N1632    N        0.22750    0.65472    0.89136    1.000
    Si1633   Si       0.25916    0.68201    0.89024    1.000
    N1634    N        0.25962    0.65176    0.95747    1.000
    N1635    N        0.22226    0.70505    0.97502    1.000
    N1636    N        0.24043    0.87414    0.04481    1.000
    Si1637   Si       0.24019    0.83063    0.03684    1.000
    Si1638   Si       0.22750    0.81925    0.11015    1.000
    N1639    N        0.27985    0.82165    0.02718    1.000
    N1640    N        0.22301    0.86223    0.11434    1.000
    N1641    N        0.26567    0.94521    0.02528    1.000
    Si1642   Si       0.25188    0.98414    0.03389    1.000
    Si1643   Si       0.26948    0.90646    0.04399    1.000
    N1644    N        0.22707    0.98758    0.07093    1.000
    Si1645   Si       0.26100    0.93995    0.11499    1.000
    N1646    N        0.23226    0.92234    0.08453    1.000
    N1647    N        0.22689    0.99863    0.00212    1.000
    Si1648   Si       0.22568    0.99848    0.11348    1.000
    N1649    N        0.26538    0.80471    0.12411    1.000
    N1650    N        0.25715    0.76987    0.18825    1.000
    N1651    N        0.25256    0.84394    0.17767    1.000
    Si1652   Si       0.24776    0.80283    0.16409    1.000
    Si1653   Si       0.25287    0.84590    0.22174    1.000
    Si1654   Si       0.24061    0.87690    0.15214    1.000
    N1655    N        0.23257    0.88291    0.22739    1.000
    N1656    N        0.23888    0.95209    0.20981    1.000
    N1657    N        0.23857    0.96654    0.14114    1.000
    N1658    N        0.27151    0.90300    0.13873    1.000
    Si1659   Si       0.26427    0.96344    0.17847    1.000
    N1660    N        0.27190    0.80806    0.30055    1.000
    N1661    N        0.26135    0.76655    0.36338    1.000
    Si1662   Si       0.23202    0.82389    0.28962    1.000
    N1663    N        0.23270    0.81422    0.24558    1.000
    N1664    N        0.23834    0.87712    0.35997    1.000
    N1665    N        0.26005    0.96068    0.29197    1.000
    Si1666   Si       0.23979    0.95458    0.32764    1.000
    N1667    N        0.26465    0.94513    0.36081    1.000
    Si1668   Si       0.27272    0.90213    0.35327    1.000
    Si1669   Si       0.24896    0.96983    0.25006    1.000
    Si1670   Si       0.24755    0.80039    0.46613    1.000
    N1671    N        0.24700    0.77345    0.43241    1.000
    N1672    N        0.26334    0.83019    0.39655    1.000
    Si1673   Si       0.25142    0.86220    0.47166    1.000
    Si1674   Si       0.24172    0.79155    0.39187    1.000
    Si1675   Si       0.23366    0.86293    0.40271    1.000
    N1676    N        0.28082    0.82896    0.47768    1.000
    N1677    N        0.25487    0.88389    0.43234    1.000
    N1678    N        0.27229    0.94811    0.43394    1.000
    N1679    N        0.27875    0.89988    0.48658    1.000
    Si1680   Si       0.26204    0.97047    0.39736    1.000
    N1681    N        0.28525    0.98975    0.48268    1.000
    Si1682   Si       0.27278    0.76855    0.52789    1.000
    N1683    N        0.23825    0.78439    0.50577    1.000
    N1684    N        0.27641    0.87336    0.60602    1.000
    N1685    N        0.23091    0.86651    0.50960    1.000
    Si1686   Si       0.24361    0.90224    0.60349    1.000
    N1687    N        0.26186    0.94285    0.60416    1.000
    N1688    N        0.24530    0.99413    0.53753    1.000
    Si1689   Si       0.24797    0.90480    0.52498    1.000
    Si1690   Si       0.26056    0.96371    0.51019    1.000
    N1691    N        0.22974    0.00148    0.60276    1.000
    N1692    N        0.22690    0.93606    0.50345    1.000
    N1693    N        0.22827    0.89713    0.56406    1.000
    Si1694   Si       0.25890    0.85877    0.64343    1.000
    N1695    N        0.24764    0.81525    0.72738    1.000
    N1696    N        0.25859    0.81610    0.63939    1.000
    Si1697   Si       0.22830    0.77424    0.72133    1.000
    N1698    N        0.28046    0.86262    0.68217    1.000
    Si1699   Si       0.28240    0.82450    0.70293    1.000
    Si1700   Si       0.22701    0.78498    0.64331    1.000
    Si1701   Si       0.23619    0.96195    0.70269    1.000
    N1702    N        0.23888    0.99819    0.72509    1.000
    N1703    N        0.27124    0.93839    0.69648    1.000
    Si1704   Si       0.24841    0.97374    0.63058    1.000
    N1705    N        0.25509    0.77329    0.80584    1.000
    Si1706   Si       0.24954    0.81220    0.82341    1.000
    N1707    N        0.23019    0.83831    0.79659    1.000
    N1708    N        0.22515    0.81276    0.85881    1.000
    Si1709   Si       0.22041    0.87425    0.81737    1.000
    N1710    N        0.25217    0.88832    0.84223    1.000
    N1711    N        0.26484    0.93982    0.78364    1.000
    Si1712   Si       0.22292    0.94028    0.77123    1.000
    Si1713   Si       0.23859    0.00560    0.76909    1.000
    N1714    N        0.27975    0.00602    0.78546    1.000
    N1715    N        0.26837    0.77827    0.95927    1.000
    Si1716   Si       0.24712    0.81502    0.96688    1.000
    Si1717   Si       0.24561    0.82144    0.89740    1.000
    N1718    N        0.25653    0.86396    0.90396    1.000
    N1719    N        0.27463    0.79029    0.89390    1.000
    N1720    N        0.27727    0.84663    0.96654    1.000
    Si1721   Si       0.27893    0.88132    0.93754    1.000
    N1722    N        0.26276    0.91641    0.95783    1.000
    Si1723   Si       0.26895    0.95693    0.92872    1.000
    N1724    N        0.22939    0.97588    0.93684    1.000
    Si1725   Si       0.24587    0.90149    0.88281    1.000
    N1726    N        0.27853    0.92778    0.89744    1.000
    N1727    N        0.28221    0.99458    0.90516    1.000
    Si1728   Si       0.31794    0.09713    0.07184    1.000
    Si1729   Si       0.30312    0.03913    0.02987    1.000
    N1730    N        0.33190    0.05730    0.05696    1.000
    Si1731   Si       0.29500    0.10784    0.00439    1.000
    N1732    N        0.30845    0.12728    0.04111    1.000
    N1733    N        0.28792    0.09120    0.10351    1.000
    N1734    N        0.31426    0.16990    0.09705    1.000
    Si1735   Si       0.30982    0.16799    0.05475    1.000
    N1736    N        0.34366    0.19673    0.04354    1.000
    N1737    N        0.32293    0.02161    0.12082    1.000
    N1738    N        0.32004    0.03882    0.23210    1.000
    Si1739   Si       0.29046    0.02895    0.14842    1.000
    N1740    N        0.29304    0.06725    0.16824    1.000
    Si1741   Si       0.29754    0.06868    0.21093    1.000
    N1742    N        0.31566    0.10678    0.21763    1.000
    Si1743   Si       0.29571    0.10278    0.14424    1.000
    N1744    N        0.33369    0.12193    0.15073    1.000
    Si1745   Si       0.34695    0.14597    0.11789    1.000
    N1746    N        0.32535    0.21873    0.22496    1.000
    Si1747   Si       0.31201    0.20999    0.12033    1.000
    N1748    N        0.31402    0.19073    0.16033    1.000
    Si1749   Si       0.28671    0.20495    0.23993    1.000
    N1750    N        0.29540    0.26198    0.15177    1.000
    N1751    N        0.28474    0.16531    0.21968    1.000
    N1752    N        0.31640    0.05019    0.35775    1.000
    N1753    N        0.30349    0.07887    0.28982    1.000
    N1754    N        0.33028    0.11205    0.33542    1.000
    Si1755   Si       0.32091    0.04174    0.27432    1.000
    Si1756   Si       0.28972    0.11607    0.31613    1.000
    N1757    N        0.30955    0.01172    0.30375    1.000
    Si1758   Si       0.29930    0.13318    0.24874    1.000
    Si1759   Si       0.34290    0.08720    0.36916    1.000
    N1760    N        0.33508    0.13801    0.27343    1.000
    N1761    N        0.29487    0.19583    0.28327    1.000
    Si1762   Si       0.33106    0.17764    0.29619    1.000
    N1763    N        0.33697    0.24044    0.36878    1.000
    N1764    N        0.33069    0.04243    0.46930    1.000
    Si1765   Si       0.31696    0.07525    0.44542    1.000
    N1766    N        0.31152    0.11247    0.46725    1.000
    Si1767   Si       0.28940    0.03873    0.39065    1.000
    N1768    N        0.34508    0.07861    0.41324    1.000
    Si1769   Si       0.30279    0.19912    0.43955    1.000
    N1770    N        0.31075    0.18417    0.39784    1.000
    Si1771   Si       0.29569    0.24208    0.38225    1.000
    N1772    N        0.29332    0.23969    0.42726    1.000
    N1773    N        0.33992    0.20119    0.46282    1.000
    N1774    N        0.31513    0.10184    0.56087    1.000
    N1775    N        0.31920    0.02768    0.52861    1.000
    Si1776   Si       0.33875    0.01708    0.56536    1.000
    Si1777   Si       0.29678    0.02909    0.49298    1.000
    Si1778   Si       0.31091    0.14158    0.54136    1.000
    N1779    N        0.32315    0.21963    0.52713    1.000
    N1780    N        0.31226    0.16295    0.57795    1.000
    N1781    N        0.32422    0.22438    0.60119    1.000
    Si1782   Si       0.32408    0.24410    0.56315    1.000
    Si1783   Si       0.34000    0.18424    0.60175    1.000
    N1784    N        0.34363    0.15478    0.51456    1.000
    Si1785   Si       0.28620    0.23937    0.51687    1.000
    N1786    N        0.29058    0.05693    0.62168    1.000
    Si1787   Si       0.30511    0.01662    0.62284    1.000
    N1788    N        0.31347    0.05369    0.74068    1.000
    Si1789   Si       0.29000    0.07235    0.66482    1.000
    Si1790   Si       0.33040    0.02754    0.71119    1.000
    N1791    N        0.30472    0.11206    0.67062    1.000
    N1792    N        0.32708    0.04891    0.67308    1.000
    N1793    N        0.28600    0.21375    0.73880    1.000
    N1794    N        0.31279    0.22035    0.66738    1.000
    N1795    N        0.33423    0.16098    0.70498    1.000
    Si1796   Si       0.30699    0.24828    0.63393    1.000
    Si1797   Si       0.29537    0.14158    0.70087    1.000
    N1798    N        0.31365    0.07832    0.79844    1.000
    Si1799   Si       0.30860    0.03695    0.78174    1.000
    Si1800   Si       0.31465    0.09551    0.75625    1.000
    N1801    N        0.32558    0.02750    0.86522    1.000
    Si1802   Si       0.34098    0.09746    0.82791    1.000
    N1803    N        0.32974    0.09833    0.87016    1.000
    Si1804   Si       0.31676    0.21514    0.76966    1.000
    N1805    N        0.30283    0.18520    0.80032    1.000
    Si1806   Si       0.33336    0.17278    0.82830    1.000
    N1807    N        0.31023    0.16218    0.86572    1.000
    Si1808   Si       0.31489    0.06323    0.88821    1.000
    N1809    N        0.33210    0.09661    0.98295    1.000
    N1810    N        0.32005    0.05126    0.92959    1.000
    N1811    N        0.32357    0.02678    0.99359    1.000
    Si1812   Si       0.34005    0.05729    0.96800    1.000
    Si1813   Si       0.33495    0.13718    0.89004    1.000
    N1814    N        0.31206    0.17629    0.98715    1.000
    N1815    N        0.32035    0.14263    0.93085    1.000
    Si1816   Si       0.31135    0.30610    0.05783    1.000
    N1817    N        0.29405    0.33423    0.02643    1.000
    N1818    N        0.32620    0.26905    0.04291    1.000
    Si1819   Si       0.32478    0.26317    0.99843    1.000
    Si1820   Si       0.32970    0.33895    0.11579    1.000
    N1821    N        0.28674    0.30476    0.09307    1.000
    N1822    N        0.34449    0.32446    0.07606    1.000
    N1823    N        0.32025    0.43840    0.08965    1.000
    Si1824   Si       0.31217    0.41233    0.05488    1.000
    N1825    N        0.30418    0.43904    0.02138    1.000
    N1826    N        0.28466    0.50411    0.00847    1.000
    Si1827   Si       0.28416    0.45718    0.10395    1.000
    Si1828   Si       0.30159    0.36122    0.17564    1.000
    N1829    N        0.30237    0.36735    0.13188    1.000
    Si1830   Si       0.32098    0.28781    0.17072    1.000
    N1831    N        0.28984    0.32019    0.18530    1.000
    Si1832   Si       0.31972    0.29096    0.24137    1.000
    N1833    N        0.34321    0.28485    0.20671    1.000
    N1834    N        0.34215    0.37141    0.18765    1.000
    N1835    N        0.29053    0.49144    0.12838    1.000
    N1836    N        0.32685    0.43346    0.20800    1.000
    Si1837   Si       0.28837    0.41592    0.22145    1.000
    N1838    N        0.32133    0.49099    0.24357    1.000
    N1839    N        0.34231    0.49973    0.17842    1.000
    N1840    N        0.33184    0.30589    0.33029    1.000
    Si1841   Si       0.30222    0.33610    0.33294    1.000
    N1842    N        0.31871    0.37173    0.31567    1.000
    N1843    N        0.32985    0.32633    0.26508    1.000
    Si1844   Si       0.33330    0.36885    0.27516    1.000
    N1845    N        0.33885    0.26415    0.27050    1.000
    N1846    N        0.30017    0.39071    0.25594    1.000
    N1847    N        0.30756    0.43695    0.31104    1.000
    Si1848   Si       0.30159    0.47325    0.33590    1.000
    Si1849   Si       0.33055    0.40895    0.33440    1.000
    N1850    N        0.32297    0.50381    0.31226    1.000
    N1851    N        0.29724    0.34381    0.37534    1.000
    Si1852   Si       0.31221    0.34720    0.44764    1.000
    N1853    N        0.30991    0.34351    0.49082    1.000
    N1854    N        0.29414    0.31110    0.43220    1.000
    N1855    N        0.29877    0.27373    0.49121    1.000
    Si1856   Si       0.31226    0.49186    0.45522    1.000
    Si1857   Si       0.33497    0.44600    0.39391    1.000
    Si1858   Si       0.28324    0.38332    0.38790    1.000
    N1859    N        0.29124    0.38440    0.43013    1.000
    Si1860   Si       0.29502    0.42161    0.45032    1.000
    N1861    N        0.31369    0.45628    0.43049    1.000
    N1862    N        0.31788    0.40868    0.37680    1.000
    N1863    N        0.31825    0.41368    0.48522    1.000
    N1864    N        0.32938    0.48242    0.49396    1.000
    Si1865   Si       0.32223    0.35003    0.57672    1.000
    N1866    N        0.29132    0.35283    0.60991    1.000
    N1867    N        0.29646    0.32395    0.55340    1.000
    Si1868   Si       0.29346    0.31051    0.51292    1.000
    N1869    N        0.32260    0.38291    0.54757    1.000
    Si1870   Si       0.30142    0.38267    0.50857    1.000
    N1871    N        0.29988    0.48113    0.56586    1.000
    Si1872   Si       0.33053    0.49141    0.59542    1.000
    Si1873   Si       0.31678    0.50388    0.52937    1.000
    Si1874   Si       0.30439    0.34673    0.71432    1.000
    N1875    N        0.32966    0.28678    0.62829    1.000
    N1876    N        0.33431    0.31533    0.72268    1.000
    N1877    N        0.32363    0.38706    0.71524    1.000
    N1878    N        0.29457    0.40234    0.65440    1.000
    Si1879   Si       0.33004    0.48561    0.66577    1.000
    Si1880   Si       0.29352    0.45114    0.73370    1.000
    N1881    N        0.32255    0.45861    0.62750    1.000
    Si1882   Si       0.32644    0.41430    0.68249    1.000
    N1883    N        0.31843    0.45545    0.69652    1.000
    Si1884   Si       0.29988    0.30380    0.81640    1.000
    N1885    N        0.30526    0.27521    0.84894    1.000
    N1886    N        0.33643    0.31696    0.79839    1.000
    N1887    N        0.28625    0.33889    0.83984    1.000
    N1888    N        0.28091    0.35617    0.74929    1.000
    Si1889   Si       0.33779    0.29232    0.76249    1.000
    N1890    N        0.31735    0.25826    0.77782    1.000
    N1891    N        0.29512    0.42725    0.76918    1.000
    Si1892   Si       0.30923    0.38871    0.75769    1.000
    N1893    N        0.32166    0.43814    0.83340    1.000
    Si1894   Si       0.32571    0.48368    0.84160    1.000
    Si1895   Si       0.28212    0.43374    0.80974    1.000
    Si1896   Si       0.33526    0.29061    0.87679    1.000
    Si1897   Si       0.31363    0.33775    0.98821    1.000
    Si1898   Si       0.29436    0.28729    0.93467    1.000
    Si1899   Si       0.29688    0.34659    0.88023    1.000
    N1900    N        0.29669    0.36708    0.96188    1.000
    N1901    N        0.32689    0.26781    0.91368    1.000
    N1902    N        0.31225    0.29558    0.97392    1.000
    N1903    N        0.33786    0.33326    0.88819    1.000
    Si1904   Si       0.30480    0.39939    0.93150    1.000
    Si1905   Si       0.33949    0.47068    0.92042    1.000
    N1906    N        0.33693    0.42707    0.92095    1.000
    N1907    N        0.28703    0.38575    0.89506    1.000
    N1908    N        0.30276    0.48474    0.93784    1.000
    N1909    N        0.30758    0.54967    0.08644    1.000
    Si1910   Si       0.29894    0.58523    0.06402    1.000
    N1911    N        0.31568    0.61820    0.08752    1.000
    Si1912   Si       0.31730    0.52983    0.02043    1.000
    N1913    N        0.30172    0.57394    0.02189    1.000
    N1914    N        0.30609    0.72698    0.07845    1.000
    Si1915   Si       0.30565    0.72007    0.03521    1.000
    Si1916   Si       0.28789    0.64098    0.11224    1.000
    Si1917   Si       0.28247    0.70280    0.10533    1.000
    Si1918   Si       0.33929    0.75744    0.08032    1.000
    N1919    N        0.31234    0.76066    0.02033    1.000
    Si1920   Si       0.29993    0.58786    0.16294    1.000
    N1921    N        0.29270    0.59117    0.20625    1.000
    Si1922   Si       0.31935    0.58823    0.23881    1.000
    N1923    N        0.29030    0.54644    0.15488    1.000
    N1924    N        0.34009    0.59689    0.15227    1.000
    Si1925   Si       0.29958    0.50621    0.16879    1.000
    N1926    N        0.30613    0.67589    0.13211    1.000
    Si1927   Si       0.32894    0.69085    0.16723    1.000
    N1928    N        0.32913    0.66880    0.20713    1.000
    N1929    N        0.31249    0.73218    0.17016    1.000
    Si1930   Si       0.29810    0.66200    0.23796    1.000
    N1931    N        0.31964    0.57956    0.34008    1.000
    Si1932   Si       0.30686    0.62029    0.34117    1.000
    N1933    N        0.30505    0.55546    0.26384    1.000
    Si1934   Si       0.33023    0.52196    0.27244    1.000
    Si1935   Si       0.28988    0.54930    0.35433    1.000
    N1936    N        0.31559    0.62722    0.25842    1.000
    Si1937   Si       0.30852    0.73070    0.27771    1.000
    N1938    N        0.30845    0.74743    0.31847    1.000
    N1939    N        0.28922    0.69080    0.27055    1.000
    N1940    N        0.34122    0.64248    0.32651    1.000
    Si1941   Si       0.31386    0.55928    0.42518    1.000
    N1942    N        0.33388    0.52423    0.43639    1.000
    N1943    N        0.33826    0.59255    0.41485    1.000
    N1944    N        0.30569    0.63741    0.45232    1.000
    Si1945   Si       0.34226    0.74588    0.43175    1.000
    Si1946   Si       0.32514    0.63273    0.41298    1.000
    N1947    N        0.29637    0.63825    0.38061    1.000
    Si1948   Si       0.33262    0.64983    0.48372    1.000
    N1949    N        0.30383    0.72901    0.43931    1.000
    Si1950   Si       0.29491    0.71953    0.48022    1.000
    Si1951   Si       0.30022    0.57757    0.53792    1.000
    N1952    N        0.29377    0.53832    0.52111    1.000
    N1953    N        0.33986    0.58040    0.55316    1.000
    N1954    N        0.28649    0.60810    0.51222    1.000
    Si1955   Si       0.30345    0.68276    0.56463    1.000
    N1956    N        0.32479    0.64683    0.57891    1.000
    N1957    N        0.30818    0.75244    0.50724    1.000
    N1958    N        0.33913    0.71006    0.55739    1.000
    N1959    N        0.28709    0.70437    0.60107    1.000
    Si1960   Si       0.33875    0.64716    0.61833    1.000
    Si1961   Si       0.34507    0.74256    0.52954    1.000
    N1962    N        0.31324    0.68485    0.49630    1.000
    N1963    N        0.32664    0.51909    0.62587    1.000
    N1964    N        0.30735    0.58182    0.66177    1.000
    Si1965   Si       0.29934    0.54119    0.65050    1.000
    Si1966   Si       0.31622    0.51976    0.73025    1.000
    N1967    N        0.30768    0.51849    0.68656    1.000
    Si1968   Si       0.34080    0.60525    0.67517    1.000
    N1969    N        0.32980    0.63395    0.70824    1.000
    N1970    N        0.32353    0.72654    0.72363    1.000
    N1971    N        0.30474    0.64783    0.64361    1.000
    Si1972   Si       0.29130    0.63862    0.72675    1.000
    Si1973   Si       0.28909    0.74127    0.70087    1.000
    N1974    N        0.31696    0.55014    0.76275    1.000
    Si1975   Si       0.29941    0.56065    0.84478    1.000
    N1976    N        0.29795    0.51684    0.84583    1.000
    N1977    N        0.33721    0.57708    0.82875    1.000
    N1978    N        0.30122    0.64872    0.81378    1.000
    N1979    N        0.30056    0.71929    0.79565    1.000
    Si1980   Si       0.29755    0.69069    0.82701    1.000
    Si1981   Si       0.31330    0.70265    0.75860    1.000
    N1982    N        0.32695    0.69633    0.85784    1.000
    Si1983   Si       0.34165    0.64400    0.79690    1.000
    N1984    N        0.32701    0.53802    0.97651    1.000
    N1985    N        0.30794    0.60217    0.94850    1.000
    Si1986   Si       0.32596    0.58768    0.91138    1.000
    N1987    N        0.29141    0.57355    0.88608    1.000
    Si1988   Si       0.29980    0.57229    0.97750    1.000
    Si1989   Si       0.28925    0.51130    0.96691    1.000
    N1990    N        0.34135    0.62053    0.88871    1.000
    Si1991   Si       0.33600    0.66320    0.88515    1.000
    N1992    N        0.32546    0.74906    0.91096    1.000
    Si1993   Si       0.33082    0.71053    0.93867    1.000
    N1994    N        0.32411    0.66819    0.96386    1.000
    Si1995   Si       0.29828    0.64392    0.94271    1.000
    N1996    N        0.29342    0.72349    0.95688    1.000
    N1997    N        0.29625    0.66461    0.90500    1.000
    Si1998   Si       0.31600    0.80062    0.03746    1.000
    N1999    N        0.32176    0.79739    0.07914    1.000
    Si2000   Si       0.29945    0.85122    0.00221    1.000
    Si2001   Si       0.32719    0.88099    0.10081    1.000
    N2002    N        0.33914    0.83247    0.01491    1.000
    N2003    N        0.33232    0.94760    0.00715    1.000
    N2004    N        0.29839    0.89347    0.01068    1.000
    N2005    N        0.30438    0.90157    0.07118    1.000
    N2006    N        0.29441    0.96359    0.10502    1.000
    Si2007   Si       0.33118    0.91754    0.03890    1.000
    Si2008   Si       0.33402    0.94836    0.10402    1.000
    Si2009   Si       0.29282    0.00597    0.09349    1.000
    N2010    N        0.28668    0.00728    0.05205    1.000
    Si2011   Si       0.30813    0.80799    0.12051    1.000
    N2012    N        0.31837    0.84870    0.12491    1.000
    N2013    N        0.29188    0.83720    0.23793    1.000
    N2014    N        0.32561    0.87063    0.18609    1.000
    Si2015   Si       0.32549    0.86352    0.22758    1.000
    N2016    N        0.33112    0.79833    0.15898    1.000
    N2017    N        0.28888    0.99957    0.18016    1.000
    N2018    N        0.29917    0.93546    0.18664    1.000
    N2019    N        0.29403    0.97261    0.24403    1.000
    Si2020   Si       0.31474    0.00016    0.21501    1.000
    Si2021   Si       0.32011    0.93975    0.22489    1.000
    Si2022   Si       0.30867    0.90174    0.16024    1.000
    N2023    N        0.33891    0.91218    0.12853    1.000
    N2024    N        0.31539    0.81193    0.35412    1.000
    Si2025   Si       0.29569    0.80076    0.26246    1.000
    Si2026   Si       0.28863    0.78415    0.33381    1.000
    N2027    N        0.28947    0.75852    0.24998    1.000
    Si2028   Si       0.30079    0.97191    0.28872    1.000
    Si2029   Si       0.32602    0.90207    0.29098    1.000
    N2030    N        0.33557    0.94613    0.29241    1.000
    N2031    N        0.29066    0.89959    0.31442    1.000
    N2032    N        0.32286    0.90173    0.24683    1.000
    N2033    N        0.32877    0.82681    0.41297    1.000
    Si2034   Si       0.30042    0.84232    0.38321    1.000
    N2035    N        0.34336    0.83292    0.49502    1.000
    N2036    N        0.34509    0.97226    0.45685    1.000
    N2037    N        0.32778    0.90912    0.43640    1.000
    Si2038   Si       0.34046    0.90431    0.39496    1.000
    Si2039   Si       0.30323    0.97833    0.44345    1.000
    Si2040   Si       0.28713    0.90824    0.44415    1.000
    N2041    N        0.30488    0.88522    0.37707    1.000
    N2042    N        0.29525    0.99742    0.40503    1.000
    Si2043   Si       0.31992    0.79777    0.57348    1.000
    N2044    N        0.30677    0.87214    0.53896    1.000
    N2045    N        0.33038    0.83708    0.59051    1.000
    Si2046   Si       0.30386    0.83528    0.51402    1.000
    N2047    N        0.30060    0.77285    0.60364    1.000
    Si2048   Si       0.31105    0.87565    0.58171    1.000
    N2049    N        0.29102    0.80485    0.54155    1.000
    Si2050   Si       0.31059    0.90819    0.51648    1.000
    N2051    N        0.32508    0.91890    0.58436    1.000
    Si2052   Si       0.29563    0.94833    0.57683    1.000
    N2053    N        0.30228    0.99507    0.58166    1.000
    N2054    N        0.28245    0.93706    0.53672    1.000
    N2055    N        0.32147    0.82323    0.72294    1.000
    Si2056   Si       0.29826    0.79510    0.64161    1.000
    N2057    N        0.33397    0.81907    0.65347    1.000
    N2058    N        0.29238    0.78321    0.68447    1.000
    Si2059   Si       0.33669    0.86345    0.72922    1.000
    Si2060   Si       0.33823    0.79505    0.69214    1.000
    N2061    N        0.32696    0.92096    0.67186    1.000
    N2062    N        0.30633    0.89376    0.73495    1.000
    N2063    N        0.28775    0.98544    0.64556    1.000
    Si2064   Si       0.30442    0.95738    0.67335    1.000
    Si2065   Si       0.29293    0.90248    0.69575    1.000
    N2066    N        0.32701    0.98476    0.69758    1.000
    N2067    N        0.32334    0.78157    0.78283    1.000
    Si2068   Si       0.29323    0.87098    0.83670    1.000
    N2069    N        0.28864    0.82770    0.83613    1.000
    Si2070   Si       0.30744    0.80035    0.86407    1.000
    N2071    N        0.32474    0.76719    0.84331    1.000
    Si2072   Si       0.29620    0.76087    0.80769    1.000
    N2073    N        0.31093    0.88677    0.80093    1.000
    Si2074   Si       0.29863    0.91375    0.77122    1.000
    N2075    N        0.30250    0.96678    0.84118    1.000
    N2076    N        0.32752    0.94757    0.77850    1.000
    Si2077   Si       0.29539    0.96870    0.79929    1.000
    N2078    N        0.32327    0.88256    0.86675    1.000
    N2079    N        0.33344    0.79186    0.96233    1.000
    N2080    N        0.33599    0.81632    0.88896    1.000
    Si2081   Si       0.30583    0.76322    0.97853    1.000
    N2082    N        0.29384    0.96935    0.96402    1.000
    N2083    N        0.32377    0.88816    0.93061    1.000
    Si2084   Si       0.28945    0.93309    0.99002    1.000
    Si2085   Si       0.31430    0.98380    0.87816    1.000
    Si2086   Si       0.32003    0.91540    0.89555    1.000
    Si2087   Si       0.32848    0.98493    0.98406    1.000
    Si2088   Si       0.37191    0.04311    0.06198    1.000
    N2089    N        0.38728    0.03504    0.10276    1.000
    N2090    N        0.35380    0.11578    0.08678    1.000
    Si2091   Si       0.39193    0.11431    0.06849    1.000
    N2092    N        0.40490    0.07385    0.05820    1.000
    Si2093   Si       0.35022    0.23645    0.06179    1.000
    N2094    N        0.39088    0.25106    0.05651    1.000
    Si2095   Si       0.39699    0.25217    0.01240    1.000
    N2096    N        0.34930    0.22886    0.10617    1.000
    Si2097   Si       0.34902    0.19299    0.00030    1.000
    N2098    N        0.38538    0.09495    0.19063    1.000
    N2099    N        0.37415    0.02110    0.17236    1.000
    Si2100   Si       0.34840    0.11902    0.19116    1.000
    Si2101   Si       0.36209    0.01463    0.13091    1.000
    Si2102   Si       0.40052    0.05303    0.19278    1.000
    N2103    N        0.38121    0.16983    0.12699    1.000
    N2104    N        0.39580    0.24091    0.23611    1.000
    N2105    N        0.35916    0.15976    0.20489    1.000
    N2106    N        0.37068    0.22649    0.17376    1.000
    Si2107   Si       0.38080    0.21279    0.13290    1.000
    Si2108   Si       0.34481    0.19712    0.19157    1.000
    N2109    N        0.35990    0.05289    0.29496    1.000
    N2110    N        0.37710    0.05823    0.36037    1.000
    N2111    N        0.38692    0.11191    0.31022    1.000
    Si2112   Si       0.34687    0.09733    0.29538    1.000
    Si2113   Si       0.34648    0.03071    0.33074    1.000
    Si2114   Si       0.39694    0.03420    0.27519    1.000
    Si2115   Si       0.36779    0.13973    0.34001    1.000
    N2116    N        0.36400    0.19183    0.27066    1.000
    Si2117   Si       0.35733    0.22985    0.25372    1.000
    N2118    N        0.34415    0.17606    0.33596    1.000
    Si2119   Si       0.36751    0.15512    0.24740    1.000
    N2120    N        0.37404    0.12087    0.37881    1.000
    Si2121   Si       0.39189    0.11961    0.41755    1.000
    N2122    N        0.38518    0.01852    0.42503    1.000
    Si2123   Si       0.34990    0.12646    0.48317    1.000
    Si2124   Si       0.38107    0.05674    0.40610    1.000
    Si2125   Si       0.36288    0.01082    0.46028    1.000
    N2126    N        0.37947    0.18980    0.39748    1.000
    Si2127   Si       0.34481    0.19760    0.37233    1.000
    N2128    N        0.37129    0.14159    0.44921    1.000
    Si2129   Si       0.37048    0.18307    0.43956    1.000
    N2130    N        0.36437    0.05690    0.56194    1.000
    Si2131   Si       0.35277    0.05127    0.51238    1.000
    N2132    N        0.38541    0.12518    0.56866    1.000
    Si2133   Si       0.35500    0.09601    0.57942    1.000
    N2134    N        0.37067    0.09094    0.50529    1.000
    N2135    N        0.34813    0.01680    0.61762    1.000
    N2136    N        0.38121    0.01886    0.49974    1.000
    N2137    N        0.37559    0.19463    0.57707    1.000
    N2138    N        0.39038    0.21613    0.51401    1.000
    Si2139   Si       0.38990    0.23015    0.55570    1.000
    Si2140   Si       0.35169    0.19764    0.50388    1.000
    N2141    N        0.35456    0.09050    0.62168    1.000
    N2142    N        0.39357    0.05162    0.66897    1.000
    Si2143   Si       0.35742    0.05199    0.64112    1.000
    N2144    N        0.37926    0.11585    0.68188    1.000
    N2145    N        0.37015    0.01431    0.72828    1.000
    Si2146   Si       0.34616    0.12192    0.65391    1.000
    Si2147   Si       0.34517    0.19217    0.67558    1.000
    Si2148   Si       0.36553    0.13418    0.71833    1.000
    N2149    N        0.34702    0.16471    0.64102    1.000
    N2150    N        0.39212    0.15739    0.74302    1.000
    Si2151   Si       0.39191    0.19958    0.73693    1.000
    N2152    N        0.38009    0.21173    0.69683    1.000
    Si2153   Si       0.40148    0.24373    0.67633    1.000
    N2154    N        0.37472    0.06819    0.83062    1.000
    Si2155   Si       0.35493    0.02912    0.83450    1.000
    Si2156   Si       0.38422    0.01386    0.76940    1.000
    N2157    N        0.34614    0.01969    0.79281    1.000
    N2158    N        0.35448    0.11298    0.75292    1.000
    N2159    N        0.38761    0.01009    0.85402    1.000
    Si2160   Si       0.38008    0.13533    0.77957    1.000
    N2161    N        0.35256    0.13704    0.81357    1.000
    Si2162   Si       0.38624    0.21428    0.80388    1.000
    N2163    N        0.36169    0.20974    0.76875    1.000
    N2164    N        0.36922    0.19783    0.83840    1.000
    Si2165   Si       0.39732    0.17796    0.86637    1.000
    N2166    N        0.38507    0.10713    0.94366    1.000
    N2167    N        0.38155    0.04695    0.97766    1.000
    Si2168   Si       0.35338    0.13220    0.96048    1.000
    Si2169   Si       0.39093    0.00694    0.99275    1.000
    N2170    N        0.36006    0.23632    0.99479    1.000
    N2171    N        0.37726    0.15065    0.89146    1.000
    N2172    N        0.37657    0.16083    0.98606    1.000
    Si2173   Si       0.38350    0.33765    0.08726    1.000
    Si2174   Si       0.37625    0.37540    0.02762    1.000
    N2175    N        0.35354    0.34811    0.00164    1.000
    N2176    N        0.39996    0.29293    0.99802    1.000
    Si2177   Si       0.36385    0.42554    0.08709    1.000
    N2178    N        0.38330    0.45751    0.06297    1.000
    N2179    N        0.35192    0.39712    0.05582    1.000
    N2180    N        0.39594    0.41815    0.11526    1.000
    Si2181   Si       0.39637    0.49548    0.08046    1.000
    N2182    N        0.36731    0.36446    0.11784    1.000
    Si2183   Si       0.38903    0.31778    0.15348    1.000
    N2184    N        0.34581    0.31205    0.14600    1.000
    Si2185   Si       0.38118    0.26074    0.19964    1.000
    Si2186   Si       0.38729    0.38905    0.14763    1.000
    Si2187   Si       0.35890    0.40414    0.21006    1.000
    N2188    N        0.38853    0.41720    0.18179    1.000
    Si2189   Si       0.34583    0.47272    0.21295    1.000
    N2190    N        0.38668    0.46668    0.22461    1.000
    Si2191   Si       0.38872    0.36974    0.33416    1.000
    N2192    N        0.38244    0.34607    0.29759    1.000
    N2193    N        0.38243    0.27374    0.31862    1.000
    Si2194   Si       0.35462    0.27472    0.35133    1.000
    Si2195   Si       0.35634    0.30330    0.29273    1.000
    N2196    N        0.36955    0.36020    0.37051    1.000
    N2197    N        0.37391    0.40959    0.32695    1.000
    Si2198   Si       0.36094    0.49587    0.33036    1.000
    N2199    N        0.38952    0.47441    0.30484    1.000
    Si2200   Si       0.39504    0.48831    0.26247    1.000
    N2201    N        0.36657    0.39089    0.25096    1.000
    N2202    N        0.34161    0.47055    0.36028    1.000
    Si2203   Si       0.37386    0.33069    0.40313    1.000
    N2204    N        0.37777    0.29328    0.38506    1.000
    N2205    N        0.35094    0.35412    0.43033    1.000
    Si2206   Si       0.34850    0.38445    0.39894    1.000
    Si2207   Si       0.39433    0.44310    0.43679    1.000
    N2208    N        0.39500    0.48639    0.43024    1.000
    N2209    N        0.38520    0.43725    0.47772    1.000
    N2210    N        0.37004    0.42169    0.40866    1.000
    N2211    N        0.36312    0.33999    0.58517    1.000
    Si2212   Si       0.38098    0.30269    0.57356    1.000
    Si2213   Si       0.37983    0.36859    0.61497    1.000
    N2214    N        0.36271    0.26387    0.56275    1.000
    N2215    N        0.39971    0.29506    0.61150    1.000
    N2216    N        0.39510    0.38888    0.53024    1.000
    N2217    N        0.36388    0.40344    0.59784    1.000
    Si2218   Si       0.37949    0.47595    0.55602    1.000
    N2219    N        0.37733    0.47607    0.60082    1.000
    Si2220   Si       0.36016    0.40306    0.55536    1.000
    N2221    N        0.36374    0.44103    0.53794    1.000
    Si2222   Si       0.34648    0.44428    0.49614    1.000
    Si2223   Si       0.37836    0.30367    0.71457    1.000
    N2224    N        0.37928    0.28100    0.67833    1.000
    Si2225   Si       0.36814    0.30183    0.64152    1.000
    N2226    N        0.37275    0.34389    0.65009    1.000
    Si2227   Si       0.38732    0.50022    0.70645    1.000
    N2228    N        0.35504    0.50485    0.73694    1.000
    Si2229   Si       0.36158    0.43942    0.62443    1.000
    N2230    N        0.37310    0.49614    0.66493    1.000
    N2231    N        0.36552    0.42568    0.66503    1.000
    Si2232   Si       0.36870    0.34692    0.80212    1.000
    N2233    N        0.36950    0.37531    0.83766    1.000
    N2234    N        0.38073    0.28747    0.75455    1.000
    N2235    N        0.40084    0.31662    0.82207    1.000
    Si2236   Si       0.35075    0.40810    0.81691    1.000
    N2237    N        0.35624    0.49460    0.81207    1.000
    N2238    N        0.38734    0.42840    0.80705    1.000
    Si2239   Si       0.39323    0.47018    0.81753    1.000
    N2240    N        0.34058    0.38307    0.78365    1.000
    Si2241   Si       0.37203    0.51023    0.77484    1.000
    N2242    N        0.37600    0.27921    0.87521    1.000
    N2243    N        0.38112    0.37486    0.93690    1.000
    N2244    N        0.37490    0.30835    0.93813    1.000
    Si2245   Si       0.37191    0.26951    0.91930    1.000
    Si2246   Si       0.37566    0.34194    0.91160    1.000
    Si2247   Si       0.38059    0.32679    0.97623    1.000
    N2248    N        0.34777    0.48260    0.87863    1.000
    N2249    N        0.40146    0.43333    0.94624    1.000
    Si2250   Si       0.38857    0.50036    0.88294    1.000
    Si2251   Si       0.37963    0.41314    0.91554    1.000
    N2252    N        0.37232    0.49286    0.94021    1.000
    N2253    N        0.37034    0.58237    0.08203    1.000
    Si2254   Si       0.35080    0.60862    0.11023    1.000
    N2255    N        0.35361    0.52991    0.04293    1.000
    Si2256   Si       0.35056    0.54270    0.08410    1.000
    Si2257   Si       0.39117    0.54390    0.02883    1.000
    N2258    N        0.36930    0.51471    0.10979    1.000
    N2259    N        0.40102    0.58609    0.02345    1.000
    N2260    N        0.38194    0.63850    0.11326    1.000
    Si2261   Si       0.38032    0.71929    0.04210    1.000
    N2262    N        0.38944    0.70031    0.08002    1.000
    N2263    N        0.34335    0.69911    0.02625    1.000
    Si2264   Si       0.37424    0.51527    0.15369    1.000
    N2265    N        0.39101    0.55381    0.16753    1.000
    Si2266   Si       0.37040    0.58930    0.18470    1.000
    N2267    N        0.35860    0.57990    0.22454    1.000
    N2268    N        0.38987    0.62744    0.19475    1.000
    Si2269   Si       0.36872    0.65596    0.22072    1.000
    Si2270   Si       0.38523    0.72075    0.11880    1.000
    N2271    N        0.35850    0.75487    0.11918    1.000
    N2272    N        0.36938    0.70066    0.15432    1.000
    N2273    N        0.38009    0.75124    0.19174    1.000
    N2274    N        0.36723    0.59185    0.29285    1.000
    N2275    N        0.37612    0.53495    0.34011    1.000
    N2276    N        0.37178    0.52579    0.26491    1.000
    Si2277   Si       0.36278    0.57640    0.33411    1.000
    Si2278   Si       0.38407    0.56929    0.25912    1.000
    N2279    N        0.38510    0.59618    0.36366    1.000
    Si2280   Si       0.34916    0.63052    0.28499    1.000
    N2281    N        0.37138    0.66161    0.26574    1.000
    Si2282   Si       0.37029    0.65869    0.35236    1.000
    Si2283   Si       0.38751    0.70498    0.26145    1.000
    N2284    N        0.36793    0.70419    0.34951    1.000
    N2285    N        0.35286    0.72483    0.27844    1.000
    Si2286   Si       0.35115    0.73521    0.32289    1.000
    Si2287   Si       0.37736    0.52580    0.43838    1.000
    Si2288   Si       0.38080    0.59254    0.40629    1.000
    N2289    N        0.39292    0.55012    0.40824    1.000
    N2290    N        0.39594    0.54418    0.47541    1.000
    N2291    N        0.36903    0.65591    0.46140    1.000
    N2292    N        0.37108    0.71509    0.42430    1.000
    Si2293   Si       0.38292    0.67550    0.42510    1.000
    N2294    N        0.36024    0.65350    0.39488    1.000
    Si2295   Si       0.37803    0.72938    0.38384    1.000
    Si2296   Si       0.36858    0.54979    0.56501    1.000
    N2297    N        0.38351    0.54842    0.60771    1.000
    N2298    N        0.39134    0.61264    0.57550    1.000
    Si2299   Si       0.39225    0.59274    0.61470    1.000
    Si2300   Si       0.35258    0.62220    0.55680    1.000
    N2301    N        0.35242    0.51076    0.55493    1.000
    N2302    N        0.35692    0.63671    0.51769    1.000
    Si2303   Si       0.36939    0.70970    0.58718    1.000
    N2304    N        0.37709    0.74389    0.61159    1.000
    N2305    N        0.37959    0.73637    0.50405    1.000
    Si2306   Si       0.39452    0.64273    0.49406    1.000
    N2307    N        0.36011    0.61209    0.63664    1.000
    N2308    N        0.37548    0.59403    0.70273    1.000
    Si2309   Si       0.36682    0.62828    0.72994    1.000
    Si2310   Si       0.38948    0.50935    0.62633    1.000
    N2311    N        0.36678    0.68005    0.61927    1.000
    N2312    N        0.40196    0.65640    0.72878    1.000
    Si2313   Si       0.36348    0.73839    0.71102    1.000
    Si2314   Si       0.39245    0.74680    0.65309    1.000
    Si2315   Si       0.39651    0.68418    0.64924    1.000
    N2316    N        0.38911    0.71050    0.68280    1.000
    N2317    N        0.39372    0.72500    0.74269    1.000
    Si2318   Si       0.36015    0.60452    0.85295    1.000
    N2319    N        0.38348    0.55110    0.78246    1.000
    N2320    N        0.35267    0.61336    0.76861    1.000
    Si2321   Si       0.34685    0.57211    0.78436    1.000
    N2322    N        0.39578    0.58700    0.86884    1.000
    Si2323   Si       0.33996    0.73561    0.87104    1.000
    N2324    N        0.36957    0.64092    0.83071    1.000
    N2325    N        0.37865    0.72906    0.81172    1.000
    Si2326   Si       0.38625    0.70115    0.77769    1.000
    N2327    N        0.34788    0.68060    0.77300    1.000
    N2328    N        0.35656    0.55841    0.91746    1.000
    Si2329   Si       0.36518    0.53406    0.95628    1.000
    N2330    N        0.39608    0.53524    0.98638    1.000
    N2331    N        0.38338    0.74157    0.87759    1.000
    Si2332   Si       0.35828    0.68233    0.98852    1.000
    N2333    N        0.35928    0.68691    0.91153    1.000
    N2334    N        0.39418    0.65609    0.98090    1.000
    Si2335   Si       0.39913    0.74189    0.97483    1.000
    N2336    N        0.36011    0.72264    0.96789    1.000
    Si2337   Si       0.36801    0.85495    0.03900    1.000
    N2338    N        0.36284    0.86590    0.07998    1.000
    Si2339   Si       0.39425    0.86065    0.11061    1.000
    N2340    N        0.37335    0.76013    0.05203    1.000
    N2341    N        0.36976    0.89541    0.02305    1.000
    N2342    N        0.35492    0.94572    0.06717    1.000
    Si2343   Si       0.39191    0.96668    0.05327    1.000
    N2344    N        0.37920    0.00566    0.03566    1.000
    Si2345   Si       0.34265    0.83994    0.16019    1.000
    N2346    N        0.36626    0.84897    0.23598    1.000
    N2347    N        0.38527    0.84302    0.15049    1.000
    Si2348   Si       0.34811    0.75735    0.16316    1.000
    N2349    N        0.34748    0.97230    0.21486    1.000
    Si2350   Si       0.37950    0.97653    0.18607    1.000
    N2351    N        0.36432    0.97078    0.13038    1.000
    N2352    N        0.38640    0.93184    0.18028    1.000
    Si2353   Si       0.38052    0.92880    0.13822    1.000
    Si2354   Si       0.35969    0.83358    0.27725    1.000
    Si2355   Si       0.37980    0.77493    0.27804    1.000
    N2356    N        0.37944    0.76618    0.32193    1.000
    N2357    N        0.35101    0.86961    0.29970    1.000
    N2358    N        0.33816    0.79706    0.27415    1.000
    N2359    N        0.39235    0.99073    0.27517    1.000
    N2360    N        0.36677    0.99275    0.33562    1.000
    Si2361   Si       0.37242    0.96425    0.30284    1.000
    Si2362   Si       0.38412    0.96295    0.35972    1.000
    N2363    N        0.39803    0.93686    0.32499    1.000
    N2364    N        0.38482    0.81471    0.36877    1.000
    N2365    N        0.38312    0.84767    0.45018    1.000
    N2366    N        0.35703    0.77999    0.45420    1.000
    Si2367   Si       0.39352    0.77001    0.47690    1.000
    Si2368   Si       0.34465    0.82311    0.45307    1.000
    Si2369   Si       0.34638    0.80097    0.38263    1.000
    N2370    N        0.37417    0.87861    0.38961    1.000
    Si2371   Si       0.38486    0.84417    0.49386    1.000
    Si2372   Si       0.39769    0.88033    0.42631    1.000
    N2373    N        0.34543    0.75960    0.39081    1.000
    N2374    N        0.35516    0.94160    0.38359    1.000
    Si2375   Si       0.35761    0.93025    0.46105    1.000
    N2376    N        0.39771    0.91819    0.44766    1.000
    N2377    N        0.38941    0.81487    0.60776    1.000
    Si2378   Si       0.38402    0.77714    0.58534    1.000
    N2379    N        0.35273    0.77397    0.55725    1.000
    N2380    N        0.38446    0.95193    0.61730    1.000
    Si2381   Si       0.38781    0.91553    0.52353    1.000
    N2382    N        0.37418    0.99375    0.56104    1.000
    Si2383   Si       0.36601    0.91658    0.59843    1.000
    Si2384   Si       0.38164    0.99223    0.60525    1.000
    N2385    N        0.39319    0.90855    0.56507    1.000
    N2386    N        0.34846    0.92046    0.50304    1.000
    Si2387   Si       0.35690    0.84003    0.62434    1.000
    N2388    N        0.36535    0.87170    0.69938    1.000
    N2389    N        0.36838    0.78097    0.72480    1.000
    N2390    N        0.36636    0.88196    0.62590    1.000
    N2391    N        0.35306    0.75913    0.67147    1.000
    N2392    N        0.39886    0.98421    0.67334    1.000
    Si2393   Si       0.36924    0.97883    0.70597    1.000
    N2394    N        0.37885    0.94279    0.73018    1.000
    Si2395   Si       0.36263    0.89816    0.66687    1.000
    N2396    N        0.36867    0.84876    0.83189    1.000
    N2397    N        0.35577    0.84936    0.76474    1.000
    Si2398   Si       0.35325    0.87487    0.80016    1.000
    N2399    N        0.38625    0.79347    0.78430    1.000
    Si2400   Si       0.35752    0.76879    0.80833    1.000
    Si2401   Si       0.34922    0.80602    0.75796    1.000
    Si2402   Si       0.40085    0.82359    0.81667    1.000
    N2403    N        0.38217    0.90474    0.79159    1.000
    Si2404   Si       0.37055    0.94312    0.77326    1.000
    Si2405   Si       0.35400    0.85255    0.87294    1.000
    N2406    N        0.38325    0.86145    0.90320    1.000
    Si2407   Si       0.36463    0.81144    0.98441    1.000
    N2408    N        0.38921    0.79149    0.92158    1.000
    N2409    N        0.38463    0.84491    0.96466    1.000
    Si2410   Si       0.36565    0.87787    0.94206    1.000
    Si2411   Si       0.34603    0.78776    0.92032    1.000
    N2412    N        0.39483    0.78052    0.99286    1.000
    N2413    N        0.34024    0.95585    0.90215    1.000
    Si2414   Si       0.37517    0.95358    0.93007    1.000
    N2415    N        0.37797    0.91665    0.95453    1.000
    Si2416   Si       0.37176    0.93701    0.99214    1.000
    N2417    N        0.37051    0.97704    0.96702    1.000
    Si2418   Si       0.42103    0.06537    0.09850    1.000
    N2419    N        0.41622    0.10846    0.10945    1.000
    N2420    N        0.42506    0.10669    0.99887    1.000
    N2421    N        0.46151    0.05510    0.10166    1.000
    N2422    N        0.44621    0.16813    0.10792    1.000
    Si2423   Si       0.44873    0.15851    0.06492    1.000
    Si2424   Si       0.41198    0.14637    0.00385    1.000
    N2425    N        0.41082    0.14662    0.04749    1.000
    N2426    N        0.41829    0.23160    0.12120    1.000
    N2427    N        0.46089    0.19465    0.04650    1.000
    N2428    N        0.43962    0.04858    0.17496    1.000
    Si2429   Si       0.41870    0.11836    0.20873    1.000
    N2430    N        0.45626    0.09835    0.21649    1.000
    N2431    N        0.40012    0.04877    0.23514    1.000
    N2432    N        0.43251    0.14094    0.17210    1.000
    Si2433   Si       0.41697    0.14783    0.13170    1.000
    Si2434   Si       0.45514    0.20856    0.12459    1.000
    N2435    N        0.42376    0.05596    0.30130    1.000
    N2436    N        0.44271    0.09005    0.35221    1.000
    Si2437   Si       0.41953    0.13145    0.28766    1.000
    Si2438   Si       0.40362    0.07876    0.33379    1.000
    N2439    N        0.40619    0.13433    0.24737    1.000
    N2440    N        0.45987    0.11210    0.28418    1.000
    N2441    N        0.42141    0.17180    0.30557    1.000
    N2442    N        0.44282    0.24177    0.32626    1.000
    Si2443   Si       0.45208    0.20325    0.30606    1.000
    N2444    N        0.46091    0.21471    0.26436    1.000
    Si2445   Si       0.45634    0.24285    0.36951    1.000
    Si2446   Si       0.43824    0.24701    0.24644    1.000
    N2447    N        0.41188    0.08107    0.42189    1.000
    Si2448   Si       0.44802    0.06271    0.43523    1.000
    N2449    N        0.45250    0.02599    0.40990    1.000
    N2450    N        0.44935    0.04353    0.47598    1.000
    Si2451   Si       0.45496    0.11251    0.38943    1.000
    N2452    N        0.42815    0.14249    0.41190    1.000
    N2453    N        0.44916    0.20212    0.38198    1.000
    Si2454   Si       0.42175    0.18493    0.40904    1.000
    N2455    N        0.41115    0.19948    0.45019    1.000
    Si2456   Si       0.42316    0.22206    0.48520    1.000
    N2457    N        0.42843    0.07361    0.54597    1.000
    N2458    N        0.41453    0.02120    0.60381    1.000
    Si2459   Si       0.45195    0.04583    0.51829    1.000
    Si2460   Si       0.40674    0.03722    0.56355    1.000
    Si2461   Si       0.40206    0.10761    0.53113    1.000
    N2462    N        0.43630    0.01122    0.53932    1.000
    N2463    N        0.42567    0.13796    0.51208    1.000
    Si2464   Si       0.40682    0.16132    0.57989    1.000
    N2465    N        0.42780    0.24509    0.57064    1.000
    N2466    N        0.44183    0.18029    0.56063    1.000
    Si2467   Si       0.45675    0.16826    0.52292    1.000
    N2468    N        0.42650    0.16153    0.61931    1.000
    Si2469   Si       0.45179    0.12724    0.62536    1.000
    Si2470   Si       0.44163    0.04893    0.62676    1.000
    N2471    N        0.43320    0.09103    0.63948    1.000
    Si2472   Si       0.41370    0.08949    0.67882    1.000
    N2473    N        0.44409    0.08810    0.70857    1.000
    Si2474   Si       0.41728    0.02142    0.68633    1.000
    N2475    N        0.43691    0.01810    0.72494    1.000
    N2476    N        0.45404    0.03347    0.66380    1.000
    Si2477   Si       0.43980    0.05836    0.74268    1.000
    N2478    N        0.41086    0.23246    0.63683    1.000
    Si2479   Si       0.46088    0.22647    0.70800    1.000
    Si2480   Si       0.44148    0.19956    0.63768    1.000
    N2481    N        0.43229    0.21745    0.74077    1.000
    N2482    N        0.45185    0.19521    0.67818    1.000
    N2483    N        0.43825    0.05916    0.83333    1.000
    N2484    N        0.41589    0.11824    0.79538    1.000
    Si2485   Si       0.41105    0.07663    0.80457    1.000
    N2486    N        0.40517    0.05215    0.77128    1.000
    Si2487   Si       0.40811    0.04853    0.86312    1.000
    N2488    N        0.42047    0.18753    0.79882    1.000
    Si2489   Si       0.43918    0.15089    0.81133    1.000
    N2490    N        0.42835    0.14811    0.85279    1.000
    Si2491   Si       0.44178    0.22185    0.78270    1.000
    N2492    N        0.41084    0.25023    0.79992    1.000
    N2493    N        0.44437    0.05738    0.95316    1.000
    N2494    N        0.41662    0.08151    0.89202    1.000
    N2495    N        0.43147    0.02144    0.89112    1.000
    Si2496   Si       0.44806    0.05640    0.91110    1.000
    Si2497   Si       0.40703    0.07928    0.96805    1.000
    Si2498   Si       0.40686    0.11913    0.90839    1.000
    Si2499   Si       0.45238    0.16231    0.88572    1.000
    N2500    N        0.44773    0.16752    0.98715    1.000
    N2501    N        0.41141    0.25176    0.92737    1.000
    Si2502   Si       0.44341    0.25678    0.95732    1.000
    Si2503   Si       0.44335    0.24040    0.89840    1.000
    N2504    N        0.43015    0.19999    0.88584    1.000
    N2505    N        0.44449    0.13877    0.92072    1.000
    N2506    N        0.43482    0.23807    0.99444    1.000
    N2507    N        0.45103    0.28097    0.08509    1.000
    Si2508   Si       0.44374    0.37373    0.06499    1.000
    Si2509   Si       0.44746    0.31351    0.11254    1.000
    Si2510   Si       0.41081    0.26450    0.09316    1.000
    N2511    N        0.40516    0.35714    0.05517    1.000
    N2512    N        0.45472    0.35642    0.10277    1.000
    N2513    N        0.40363    0.30743    0.11179    1.000
    Si2514   Si       0.43959    0.31468    0.99623    1.000
    N2515    N        0.43839    0.41677    0.05851    1.000
    Si2516   Si       0.43339    0.43220    0.09912    1.000
    N2517    N        0.43145    0.47627    0.09922    1.000
    N2518    N        0.41140    0.47378    0.00653    1.000
    Si2519   Si       0.40963    0.44054    0.03177    1.000
    N2520    N        0.39428    0.40757    0.00512    1.000
    Si2521   Si       0.45047    0.28831    0.18829    1.000
    Si2522   Si       0.43629    0.35626    0.20213    1.000
    N2523    N        0.40804    0.35602    0.16870    1.000
    N2524    N        0.40710    0.28924    0.18138    1.000
    Si2525   Si       0.41081    0.45342    0.18981    1.000
    N2526    N        0.45297    0.44521    0.19358    1.000
    Si2527   Si       0.44694    0.49639    0.13620    1.000
    N2528    N        0.41307    0.48774    0.16305    1.000
    N2529    N        0.43760    0.28475    0.26998    1.000
    Si2530   Si       0.42463    0.27736    0.31298    1.000
    N2531    N        0.43819    0.30404    0.34677    1.000
    N2532    N        0.43144    0.37138    0.33684    1.000
    Si2533   Si       0.45504    0.32150    0.25581    1.000
    Si2534   Si       0.40281    0.37738    0.27090    1.000
    N2535    N        0.42559    0.35373    0.24333    1.000
    N2536    N        0.42622    0.41193    0.28156    1.000
    N2537    N        0.43995    0.44052    0.34016    1.000
    Si2538   Si       0.40489    0.43508    0.31287    1.000
    Si2539   Si       0.45313    0.48243    0.34531    1.000
    N2540    N        0.43432    0.50328    0.25255    1.000
    Si2541   Si       0.45673    0.40389    0.35001    1.000
    N2542    N        0.45546    0.38380    0.45754    1.000
    Si2543   Si       0.42095    0.30074    0.38670    1.000
    N2544    N        0.44315    0.26707    0.40289    1.000
    Si2545   Si       0.44038    0.34200    0.44733    1.000
    N2546    N        0.41912    0.33247    0.48490    1.000
    N2547    N        0.41677    0.33266    0.41327    1.000
    N2548    N        0.43479    0.26335    0.48373    1.000
    Si2549   Si       0.43403    0.48345    0.41082    1.000
    N2550    N        0.42329    0.49827    0.37241    1.000
    N2551    N        0.43644    0.44235    0.42366    1.000
    N2552    N        0.45344    0.50989    0.49124    1.000
    Si2553   Si       0.41516    0.35288    0.52324    1.000
    N2554    N        0.41021    0.31380    0.54269    1.000
    Si2555   Si       0.43613    0.29814    0.50861    1.000
    Si2556   Si       0.42972    0.26545    0.61041    1.000
    N2557    N        0.45711    0.36690    0.52723    1.000
    N2558    N        0.41078    0.48451    0.52850    1.000
    N2559    N        0.44683    0.43315    0.50716    1.000
    Si2560   Si       0.45185    0.47380    0.51537    1.000
    Si2561   Si       0.40438    0.43080    0.51422    1.000
    N2562    N        0.43352    0.51052    0.62224    1.000
    Si2563   Si       0.41382    0.35506    0.66721    1.000
    N2564    N        0.44803    0.32694    0.65816    1.000
    N2565    N        0.41300    0.32747    0.71049    1.000
    Si2566   Si       0.41964    0.36289    0.73506    1.000
    Si2567   Si       0.44574    0.30283    0.69432    1.000
    N2568    N        0.42137    0.38185    0.63055    1.000
    N2569    N        0.43725    0.26027    0.69263    1.000
    Si2570   Si       0.40392    0.42749    0.68579    1.000
    Si2571   Si       0.45207    0.41185    0.63145    1.000
    N2572    N        0.41157    0.38750    0.69982    1.000
    N2573    N        0.44061    0.43886    0.66424    1.000
    N2574    N        0.40269    0.46017    0.71562    1.000
    Si2575   Si       0.40996    0.29028    0.78620    1.000
    N2576    N        0.44552    0.30306    0.76740    1.000
    Si2577   Si       0.41193    0.30054    0.86207    1.000
    Si2578   Si       0.40786    0.37601    0.85733    1.000
    N2579    N        0.43839    0.38402    0.82675    1.000
    N2580    N        0.40129    0.36353    0.77393    1.000
    Si2581   Si       0.41819    0.39925    0.79325    1.000
    N2582    N        0.41193    0.47913    0.85352    1.000
    N2583    N        0.44077    0.42175    0.76262    1.000
    N2584    N        0.40922    0.48631    0.78043    1.000
    Si2585   Si       0.42797    0.46107    0.75153    1.000
    Si2586   Si       0.45606    0.47296    0.85868    1.000
    N2587    N        0.45003    0.27745    0.87646    1.000
    N2588    N        0.41708    0.35077    0.98467    1.000
    N2589    N        0.40901    0.34036    0.88384    1.000
    N2590    N        0.45853    0.29663    0.96195    1.000
    Si2591   Si       0.40397    0.47270    0.96279    1.000
    N2592    N        0.41015    0.40884    0.88597    1.000
    Si2593   Si       0.44807    0.41646    0.90527    1.000
    N2594    N        0.44916    0.39536    0.94315    1.000
    Si2595   Si       0.40806    0.39183    0.96652    1.000
    N2596    N        0.44207    0.49230    0.95681    1.000
    N2597    N        0.43978    0.59430    0.08485    1.000
    N2598    N        0.41544    0.52893    0.06093    1.000
    Si2599   Si       0.44682    0.55056    0.08202    1.000
    N2600    N        0.45301    0.55202    0.00202    1.000
    Si2601   Si       0.40442    0.60281    0.06288    1.000
    Si2602   Si       0.43699    0.50977    0.99652    1.000
    Si2603   Si       0.45187    0.71875    0.02229    1.000
    N2604    N        0.40993    0.71938    0.01067    1.000
    Si2605   Si       0.42571    0.65223    0.01063    1.000
    Si2606   Si       0.40702    0.66244    0.08808    1.000
    N2607    N        0.41105    0.64292    0.05051    1.000
    N2608    N        0.44916    0.66074    0.10058    1.000
    Si2609   Si       0.44916    0.75414    0.08743    1.000
    N2610    N        0.42666    0.73712    0.11964    1.000
    N2611    N        0.45249    0.53782    0.12263    1.000
    Si2612   Si       0.44895    0.54273    0.23792    1.000
    N2613    N        0.44507    0.60677    0.15065    1.000
    Si2614   Si       0.43361    0.56259    0.15806    1.000
    Si2615   Si       0.40089    0.70928    0.18419    1.000
    Si2616   Si       0.42941    0.63836    0.17629    1.000
    N2617    N        0.40200    0.68950    0.22276    1.000
    N2618    N        0.44212    0.73611    0.18519    1.000
    Si2619   Si       0.44937    0.71345    0.14593    1.000
    N2620    N        0.45336    0.64103    0.21338    1.000
    N2621    N        0.42791    0.67875    0.16301    1.000
    Si2622   Si       0.44000    0.66818    0.24407    1.000
    Si2623   Si       0.42689    0.60913    0.35949    1.000
    N2624    N        0.44056    0.56776    0.35868    1.000
    N2625    N        0.42654    0.57306    0.26054    1.000
    Si2626   Si       0.41017    0.53855    0.36831    1.000
    N2627    N        0.44610    0.64228    0.28020    1.000
    Si2628   Si       0.43804    0.66851    0.31354    1.000
    N2629    N        0.42369    0.70200    0.28855    1.000
    Si2630   Si       0.44963    0.73475    0.26787    1.000
    N2631    N        0.41070    0.64807    0.34141    1.000
    N2632    N        0.40650    0.74999    0.25599    1.000
    N2633    N        0.45905    0.56867    0.45514    1.000
    Si2634   Si       0.41749    0.58079    0.46482    1.000
    N2635    N        0.41166    0.60896    0.43263    1.000
    N2636    N        0.45962    0.62629    0.38317    1.000
    Si2637   Si       0.44380    0.63456    0.42261    1.000
    N2638    N        0.42704    0.67688    0.42204    1.000
    N2639    N        0.41389    0.75268    0.37969    1.000
    N2640    N        0.42645    0.75784    0.45275    1.000
    Si2641   Si       0.41830    0.59756    0.54563    1.000
    Si2642   Si       0.41572    0.52466    0.50995    1.000
    N2643    N        0.40645    0.55439    0.54112    1.000
    N2644    N        0.41657    0.60640    0.50013    1.000
    Si2645   Si       0.45399    0.55048    0.61915    1.000
    N2646    N        0.45796    0.61403    0.55483    1.000
    Si2647   Si       0.41205    0.71278    0.52171    1.000
    N2648    N        0.44327    0.74014    0.51485    1.000
    Si2649   Si       0.44066    0.71204    0.59144    1.000
    N2650    N        0.42047    0.67439    0.50331    1.000
    N2651    N        0.40615    0.70680    0.56414    1.000
    N2652    N        0.45703    0.67125    0.59298    1.000
    Si2653   Si       0.45742    0.75953    0.55048    1.000
    N2654    N        0.43448    0.58930    0.62481    1.000
    Si2655   Si       0.41356    0.57990    0.71647    1.000
    Si2656   Si       0.44572    0.61619    0.65722    1.000
    N2657    N        0.44649    0.59452    0.69371    1.000
    N2658    N        0.41045    0.53627    0.71043    1.000
    Si2659   Si       0.46058    0.67692    0.64031    1.000
    N2660    N        0.42372    0.65280    0.65657    1.000
    N2661    N        0.45658    0.69935    0.72079    1.000
    N2662    N        0.42965    0.71071    0.63432    1.000
    Si2663   Si       0.41460    0.69649    0.71628    1.000
    Si2664   Si       0.43394    0.58715    0.85089    1.000
    Si2665   Si       0.42586    0.56427    0.78041    1.000
    N2666    N        0.44032    0.55924    0.82120    1.000
    N2667    N        0.42024    0.59949    0.75525    1.000
    N2668    N        0.43988    0.62757    0.83457    1.000
    Si2669   Si       0.42757    0.64264    0.76249    1.000
    N2670    N        0.44668    0.73939    0.83456    1.000
    N2671    N        0.41451    0.67226    0.79169    1.000
    Si2672   Si       0.40840    0.65805    0.83276    1.000
    N2673    N        0.41112    0.68832    0.86334    1.000
    Si2674   Si       0.40719    0.72772    0.84379    1.000
    N2675    N        0.40906    0.59062    0.94314    1.000
    N2676    N        0.41736    0.52980    0.89645    1.000
    N2677    N        0.44478    0.62112    0.98422    1.000
    Si2678   Si       0.42275    0.57894    0.98507    1.000
    Si2679   Si       0.39773    0.56818    0.90724    1.000
    Si2680   Si       0.40289    0.69558    0.90692    1.000
    Si2681   Si       0.41545    0.63317    0.95278    1.000
    N2682    N        0.42596    0.66146    0.92260    1.000
    N2683    N        0.41514    0.72932    0.93666    1.000
    N2684    N        0.43989    0.78076    0.05265    1.000
    N2685    N        0.42331    0.83469    0.09451    1.000
    Si2686   Si       0.44357    0.84538    0.05569    1.000
    N2687    N        0.40382    0.83198    0.02842    1.000
    Si2688   Si       0.40167    0.78824    0.03444    1.000
    N2689    N        0.43661    0.88944    0.05694    1.000
    Si2690   Si       0.41327    0.90152    0.02203    1.000
    N2691    N        0.42296    0.96042    0.08230    1.000
    Si2692   Si       0.43608    0.91878    0.08832    1.000
    N2693    N        0.40836    0.94563    0.01783    1.000
    Si2694   Si       0.44802    0.96118    0.00358    1.000
    N2695    N        0.40601    0.90256    0.11668    1.000
    Si2696   Si       0.45906    0.97414    0.10301    1.000
    Si2697   Si       0.40867    0.84432    0.23632    1.000
    Si2698   Si       0.41847    0.76550    0.21571    1.000
    N2699    N        0.41460    0.80869    0.21129    1.000
    Si2700   Si       0.42070    0.83470    0.17466    1.000
    N2701    N        0.43011    0.87295    0.19924    1.000
    N2702    N        0.45628    0.82342    0.15396    1.000
    N2703    N        0.45479    0.93279    0.17726    1.000
    Si2704   Si       0.45265    0.97597    0.17759    1.000
    N2705    N        0.42737    0.93165    0.24362    1.000
    N2706    N        0.45352    0.99480    0.14001    1.000
    Si2707   Si       0.42230    0.91838    0.20158    1.000
    N2708    N        0.41953    0.98456    0.20442    1.000
    Si2709   Si       0.42204    0.97683    0.24619    1.000
    Si2710   Si       0.43335    0.83636    0.30079    1.000
    N2711    N        0.42225    0.86407    0.33385    1.000
    N2712    N        0.43073    0.86543    0.26691    1.000
    N2713    N        0.44369    0.80288    0.33463    1.000
    Si2714   Si       0.40740    0.78282    0.34894    1.000
    N2715    N        0.39854    0.81496    0.28018    1.000
    Si2716   Si       0.42990    0.90749    0.33117    1.000
    Si2717   Si       0.45212    0.90315    0.26213    1.000
    N2718    N        0.45588    0.91851    0.36596    1.000
    N2719    N        0.45574    0.00294    0.26091    1.000
    Si2720   Si       0.40584    0.85142    0.37398    1.000
    Si2721   Si       0.44046    0.76212    0.41021    1.000
    N2722    N        0.45063    0.80103    0.40065    1.000
    N2723    N        0.43281    0.86907    0.40294    1.000
    Si2724   Si       0.42094    0.99690    0.41556    1.000
    Si2725   Si       0.43054    0.93779    0.46820    1.000
    N2726    N        0.46171    0.90818    0.47314    1.000
    N2727    N        0.42085    0.97614    0.37808    1.000
    N2728    N        0.43846    0.97639    0.45101    1.000
    Si2729   Si       0.43882    0.82029    0.52548    1.000
    N2730    N        0.43224    0.84437    0.56063    1.000
    N2731    N        0.42558    0.77839    0.57325    1.000
    Si2732   Si       0.42945    0.81783    0.59437    1.000
    N2733    N        0.40716    0.80531    0.50159    1.000
    N2734    N        0.40491    0.87918    0.50819    1.000
    Si2735   Si       0.44745    0.88389    0.50472    1.000
    N2736    N        0.46100    0.84432    0.49649    1.000
    Si2737   Si       0.39906    0.98732    0.52478    1.000
    Si2738   Si       0.42913    0.88512    0.56929    1.000
    N2739    N        0.40998    0.94853    0.50685    1.000
    N2740    N        0.44219    0.89492    0.61050    1.000
    Si2741   Si       0.40451    0.85409    0.71135    1.000
    Si2742   Si       0.44228    0.81399    0.66657    1.000
    N2743    N        0.41986    0.77695    0.66434    1.000
    N2744    N        0.41791    0.85024    0.66902    1.000
    N2745    N        0.41808    0.82060    0.73238    1.000
    N2746    N        0.45121    0.77090    0.74029    1.000
    Si2747   Si       0.40827    0.77875    0.74497    1.000
    N2748    N        0.45803    0.81386    0.62625    1.000
    N2749    N        0.42227    0.88703    0.73792    1.000
    Si2750   Si       0.41412    0.95402    0.64868    1.000
    N2751    N        0.40301    0.91681    0.67124    1.000
    Si2752   Si       0.41298    0.92329    0.71385    1.000
    Si2753   Si       0.43412    0.88798    0.65143    1.000
    N2754    N        0.44744    0.94952    0.71261    1.000
    N2755    N        0.45823    0.94985    0.64312    1.000
    N2756    N        0.43234    0.85153    0.80332    1.000
    N2757    N        0.41345    0.79537    0.84519    1.000
    Si2758   Si       0.45358    0.78066    0.85073    1.000
    Si2759   Si       0.42055    0.88836    0.78270    1.000
    N2760    N        0.44622    0.97070    0.84312    1.000
    Si2761   Si       0.43840    0.96591    0.80013    1.000
    N2762    N        0.44795    0.92238    0.79645    1.000
    N2763    N        0.45742    0.90189    0.86162    1.000
    N2764    N        0.39936    0.97574    0.78464    1.000
    N2765    N        0.45252    0.77083    0.89452    1.000
    N2766    N        0.44446    0.83467    0.89919    1.000
    N2767    N        0.44312    0.81766    0.95651    1.000
    Si2768   Si       0.40907    0.83051    0.92623    1.000
    Si2769   Si       0.42830    0.84004    0.99122    1.000
    Si2770   Si       0.41266    0.75990    0.90546    1.000
    N2771    N        0.45617    0.89750    0.92234    1.000
    N2772    N        0.43317    0.00208    0.99478    1.000
    Si2773   Si       0.41773    0.98561    0.87270    1.000
    N2774    N        0.43524    0.88485    0.98925    1.000
    N2775    N        0.40856    0.95161    0.90046    1.000
    Si2776   Si       0.44705    0.93115    0.89274    1.000
    Si2777   Si       0.48850    0.04127    0.06716    1.000
    N2778    N        0.47078    0.05439    0.02508    1.000
    N2779    N        0.47521    0.12609    0.05028    1.000
    Si2780   Si       0.46581    0.09747    0.01797    1.000
    Si2781   Si       0.51613    0.13392    0.06399    1.000
    N2782    N        0.49003    0.22427    0.10588    1.000
    Si2783   Si       0.49713    0.21211    0.06569    1.000
    N2784    N        0.49554    0.25108    0.04050    1.000
    Si2785   Si       0.46079    0.20524    0.00293    1.000
    N2786    N        0.52219    0.17556    0.06527    1.000
    N2787    N        0.50094    0.05570    0.16177    1.000
    N2788    N        0.50049    0.04643    0.22593    1.000
    Si2789   Si       0.47357    0.06463    0.19585    1.000
    Si2790   Si       0.46667    0.03605    0.14280    1.000
    N2791    N        0.46472    0.20190    0.16684    1.000
    Si2792   Si       0.48970    0.23114    0.18802    1.000
    N2793    N        0.51793    0.21198    0.21667    1.000
    N2794    N        0.47539    0.15833    0.22484    1.000
    N2795    N        0.50619    0.14839    0.16178    1.000
    Si2796   Si       0.46897    0.16123    0.18179    1.000
    N2797    N        0.46262    0.25304    0.21037    1.000
    N2798    N        0.48837    0.04651    0.31665    1.000
    Si2799   Si       0.47870    0.12118    0.24653    1.000
    Si2800   Si       0.46068    0.07724    0.31100    1.000
    N2801    N        0.48582    0.18929    0.32828    1.000
    Si2802   Si       0.49439    0.19173    0.24665    1.000
    N2803    N        0.50116    0.25168    0.37037    1.000
    Si2804   Si       0.49346    0.01146    0.40522    1.000
    N2805    N        0.48008    0.08776    0.41815    1.000
    N2806    N        0.51669    0.10378    0.47774    1.000
    Si2807   Si       0.51843    0.09645    0.43330    1.000
    N2808    N        0.50299    0.01209    0.44632    1.000
    N2809    N        0.51604    0.19409    0.40053    1.000
    N2810    N        0.48487    0.13898    0.37307    1.000
    N2811    N        0.48969    0.24121    0.44689    1.000
    Si2812   Si       0.49829    0.21219    0.47836    1.000
    Si2813   Si       0.51437    0.23746    0.41018    1.000
    Si2814   Si       0.48507    0.18133    0.37079    1.000
    N2815    N        0.46031    0.20258    0.49803    1.000
    N2816    N        0.51535    0.17195    0.46562    1.000
    N2817    N        0.48778    0.06599    0.53025    1.000
    N2818    N        0.47615    0.11959    0.58643    1.000
    N2819    N        0.47352    0.05606    0.59786    1.000
    Si2820   Si       0.46775    0.08288    0.56506    1.000
    Si2821   Si       0.51266    0.03709    0.60156    1.000
    Si2822   Si       0.51082    0.13417    0.56366    1.000
    N2823    N        0.49527    0.15021    0.52755    1.000
    N2824    N        0.49753    0.22427    0.55026    1.000
    N2825    N        0.47200    0.21594    0.61329    1.000
    Si2826   Si       0.46209    0.21701    0.57164    1.000
    Si2827   Si       0.49580    0.03518    0.67726    1.000
    Si2828   Si       0.48023    0.10579    0.69407    1.000
    N2829    N        0.51004    0.07636    0.68476    1.000
    N2830    N        0.48808    0.13953    0.72127    1.000
    N2831    N        0.47896    0.13440    0.65791    1.000
    N2832    N        0.50835    0.25566    0.66720    1.000
    Si2833   Si       0.50016    0.24745    0.62503    1.000
    Si2834   Si       0.48669    0.16971    0.68958    1.000
    Si2835   Si       0.51355    0.15153    0.63426    1.000
    N2836    N        0.50128    0.20755    0.71807    1.000
    Si2837   Si       0.47806    0.05461    0.84754    1.000
    N2838    N        0.47411    0.05382    0.77038    1.000
    N2839    N        0.49638    0.08830    0.82696    1.000
    Si2840   Si       0.49099    0.01616    0.78798    1.000
    N2841    N        0.49416    0.01588    0.83189    1.000
    Si2842   Si       0.50796    0.07386    0.78738    1.000
    Si2843   Si       0.50144    0.13209    0.83329    1.000
    N2844    N        0.48076    0.14937    0.79778    1.000
    Si2845   Si       0.50486    0.14025    0.76115    1.000
    N2846    N        0.48053    0.23184    0.78837    1.000
    N2847    N        0.49267    0.15119    0.87252    1.000
    N2848    N        0.48571    0.05571    0.88963    1.000
    N2849    N        0.49046    0.10887    0.98246    1.000
    Si2850   Si       0.46459    0.03226    0.98555    1.000
    N2851    N        0.49483    0.01129    0.96259    1.000
    Si2852   Si       0.46880    0.13889    0.95794    1.000
    N2853    N        0.47166    0.23162    0.93165    1.000
    Si2854   Si       0.50285    0.20535    0.94765    1.000
    N2855    N        0.50262    0.16321    0.93830    1.000
    N2856    N        0.50249    0.21065    0.99141    1.000
    Si2857   Si       0.48327    0.28617    0.05699    1.000
    Si2858   Si       0.50004    0.34339    0.02141    1.000
    N2859    N        0.48648    0.37308    0.04927    1.000
    Si2860   Si       0.50104    0.35410    0.08945    1.000
    N2861    N        0.51143    0.31175    0.07885    1.000
    N2862    N        0.46725    0.31414    0.02779    1.000
    Si2863   Si       0.48233    0.41565    0.04380    1.000
    N2864    N        0.47635    0.49620    0.01649    1.000
    Si2865   Si       0.50224    0.44811    0.11090    1.000
    N2866    N        0.48102    0.42594    0.00227    1.000
    N2867    N        0.51017    0.43500    0.06907    1.000
    Si2868   Si       0.49921    0.46424    0.99936    1.000
    N2869    N        0.50858    0.36259    0.13281    1.000
    Si2870   Si       0.49044    0.33884    0.17369    1.000
    N2871    N        0.46835    0.37868    0.17860    1.000
    N2872    N        0.46599    0.30848    0.15167    1.000
    N2873    N        0.46627    0.32087    0.21208    1.000
    Si2874   Si       0.46875    0.38080    0.13497    1.000
    N2875    N        0.46933    0.42117    0.12048    1.000
    N2876    N        0.49153    0.48677    0.12583    1.000
    Si2877   Si       0.47934    0.41395    0.20217    1.000
    N2878    N        0.48819    0.40912    0.24411    1.000
    N2879    N        0.49884    0.34339    0.35117    1.000
    N2880    N        0.47896    0.32950    0.29172    1.000
    Si2881   Si       0.51736    0.32646    0.31326    1.000
    Si2882   Si       0.45939    0.33857    0.32993    1.000
    Si2883   Si       0.47018    0.42010    0.28231    1.000
    N2884    N        0.48655    0.40207    0.31709    1.000
    N2885    N        0.48573    0.46180    0.28806    1.000
    N2886    N        0.49708    0.47688    0.35647    1.000
    Si2887   Si       0.46603    0.49963    0.28170    1.000
    Si2888   Si       0.51696    0.46931    0.31883    1.000
    Si2889   Si       0.45753    0.27017    0.44589    1.000
    Si2890   Si       0.51196    0.32160    0.44387    1.000
    Si2891   Si       0.50833    0.36573    0.38680    1.000
    N2892    N        0.47182    0.31272    0.44615    1.000
    N2893    N        0.50209    0.43148    0.43743    1.000
    N2894    N        0.47231    0.39352    0.38816    1.000
    N2895    N        0.47043    0.50536    0.42078    1.000
    Si2896   Si       0.46694    0.41228    0.42539    1.000
    Si2897   Si       0.50387    0.50463    0.39057    1.000
    N2898    N        0.51301    0.40779    0.49749    1.000
    N2899    N        0.48368    0.34598    0.59431    1.000
    Si2900   Si       0.48180    0.34081    0.54997    1.000
    N2901    N        0.47598    0.30361    0.52688    1.000
    Si2902   Si       0.50851    0.37893    0.60610    1.000
    N2903    N        0.46998    0.27816    0.61685    1.000
    Si2904   Si       0.51903    0.30653    0.51723    1.000
    N2905    N        0.47984    0.47802    0.54881    1.000
    Si2906   Si       0.49813    0.44792    0.57610    1.000
    N2907    N        0.50534    0.40465    0.57068    1.000
    N2908    N        0.50766    0.48578    0.60411    1.000
    N2909    N        0.45956    0.44297    0.60230    1.000
    Si2910   Si       0.46769    0.39676    0.49749    1.000
    Si2911   Si       0.47853    0.32056    0.62808    1.000
    N2912    N        0.48540    0.30649    0.71004    1.000
    N2913    N        0.46410    0.36538    0.74086    1.000
    N2914    N        0.51640    0.32245    0.64821    1.000
    N2915    N        0.48216    0.48600    0.66320    1.000
    N2916    N        0.49265    0.39606    0.64139    1.000
    N2917    N        0.46243    0.47685    0.73010    1.000
    Si2918   Si       0.47873    0.40688    0.74320    1.000
    N2919    N        0.50013    0.42732    0.70705    1.000
    Si2920   Si       0.46525    0.47926    0.62400    1.000
    Si2921   Si       0.46884    0.45835    0.69173    1.000
    N2922    N        0.49873    0.31783    0.84359    1.000
    N2923    N        0.51397    0.32023    0.77041    1.000
    Si2924   Si       0.47776    0.32528    0.74891    1.000
    N2925    N        0.51140    0.38611    0.82101    1.000
    Si2926   Si       0.50088    0.45479    0.80292    1.000
    N2927    N        0.47362    0.44238    0.83290    1.000
    N2928    N        0.48261    0.49311    0.79260    1.000
    Si2929   Si       0.47586    0.40076    0.83976    1.000
    N2930    N        0.51164    0.42737    0.76987    1.000
    N2931    N        0.47678    0.51099    0.85763    1.000
    Si2932   Si       0.50781    0.37427    0.90717    1.000
    Si2933   Si       0.49270    0.32208    0.95233    1.000
    Si2934   Si       0.48689    0.30015    0.88215    1.000
    N2935    N        0.48887    0.33375    0.91107    1.000
    N2936    N        0.49282    0.35376    0.98046    1.000
    Si2937   Si       0.48437    0.39683    0.96946    1.000
    Si2938   Si       0.47710    0.48516    0.93273    1.000
    N2939    N        0.50545    0.46566    0.95708    1.000
    N2940    N        0.47877    0.39537    0.88309    1.000
    N2941    N        0.45924    0.45880    0.90088    1.000
    N2942    N        0.51639    0.40187    0.93877    1.000
    N2943    N        0.48752    0.54340    0.06775    1.000
    Si2944   Si       0.48801    0.53748    0.02404    1.000
    Si2945   Si       0.49516    0.52787    0.11120    1.000
    Si2946   Si       0.46202    0.62041    0.11281    1.000
    N2947    N        0.50731    0.62657    0.11867    1.000
    N2948    N        0.51370    0.63080    0.00821    1.000
    Si2949   Si       0.50471    0.67180    0.02369    1.000
    Si2950   Si       0.48023    0.68938    0.09036    1.000
    N2951    N        0.51005    0.66936    0.06695    1.000
    N2952    N        0.46113    0.71940    0.06561    1.000
    N2953    N        0.47283    0.74954    0.99944    1.000
    N2954    N        0.46211    0.67635    0.01452    1.000
    Si2955   Si       0.50095    0.56098    0.17971    1.000
    Si2956   Si       0.49178    0.62274    0.21764    1.000
    N2957    N        0.50705    0.60360    0.18229    1.000
    N2958    N        0.45807    0.55297    0.19407    1.000
    N2959    N        0.51492    0.54928    0.14174    1.000
    N2960    N        0.46728    0.70219    0.24327    1.000
    Si2961   Si       0.50521    0.75174    0.13288    1.000
    Si2962   Si       0.47967    0.74228    0.20418    1.000
    N2963    N        0.49001    0.71108    0.12596    1.000
    N2964    N        0.51908    0.65351    0.22833    1.000
    N2965    N        0.48544    0.58791    0.31281    1.000
    Si2966   Si       0.47865    0.55337    0.34006    1.000
    N2967    N        0.48655    0.53321    0.26464    1.000
    N2968    N        0.46303    0.51700    0.32141    1.000
    Si2969   Si       0.45844    0.59997    0.27920    1.000
    N2970    N        0.51024    0.54200    0.36796    1.000
    N2971    N        0.49132    0.59585    0.24977    1.000
    Si2972   Si       0.51488    0.56124    0.24763    1.000
    Si2973   Si       0.50113    0.71155    0.31858    1.000
    N2974    N        0.47362    0.68044    0.33557    1.000
    N2975    N        0.47681    0.74583    0.30274    1.000
    Si2976   Si       0.49147    0.65135    0.36766    1.000
    Si2977   Si       0.50859    0.69311    0.24244    1.000
    Si2978   Si       0.48236    0.60074    0.47405    1.000
    Si2979   Si       0.47614    0.52935    0.45856    1.000
    N2980    N        0.51777    0.53321    0.46286    1.000
    Si2981   Si       0.46253    0.67222    0.48997    1.000
    Si2982   Si       0.51339    0.71778    0.39475    1.000
    N2983    N        0.47339    0.73461    0.40281    1.000
    N2984    N        0.46546    0.64025    0.45961    1.000
    N2985    N        0.49831    0.67663    0.40294    1.000
    Si2986   Si       0.46220    0.74887    0.47738    1.000
    N2987    N        0.47164    0.70705    0.46748    1.000
    Si2988   Si       0.46630    0.69584    0.42656    1.000
    Si2989   Si       0.48832    0.58253    0.55310    1.000
    N2990    N        0.47592    0.54956    0.57823    1.000
    N2991    N        0.49579    0.57852    0.51056    1.000
    Si2992   Si       0.49697    0.51290    0.56884    1.000
    Si2993   Si       0.48034    0.65150    0.56420    1.000
    N2994    N        0.49058    0.66723    0.52298    1.000
    N2995    N        0.47518    0.73296    0.57775    1.000
    Si2996   Si       0.51475    0.74503    0.59135    1.000
    N2997    N        0.51755    0.65363    0.58606    1.000
    Si2998   Si       0.48528    0.51101    0.74711    1.000
    Si2999   Si       0.48512    0.57382    0.69060    1.000
    N3000    N        0.49533    0.53582    0.71218    1.000
    N3001    N        0.48361    0.55356    0.65241    1.000
    Si3002   Si       0.50241    0.52027    0.67225    1.000
    N3003    N        0.51909    0.59974    0.69316    1.000
    N3004    N        0.48197    0.63995    0.65347    1.000
    Si3005   Si       0.51565    0.73932    0.65707    1.000
    N3006    N        0.49669    0.70077    0.64615    1.000
    N3007    N        0.50232    0.75233    0.69594    1.000
    Si3008   Si       0.47601    0.73828    0.72951    1.000
    Si3009   Si       0.51825    0.64061    0.67869    1.000
    Si3010   Si       0.47164    0.53153    0.80914    1.000
    Si3011   Si       0.50566    0.62311    0.77790    1.000
    N3012    N        0.50311    0.61875    0.82033    1.000
    N3013    N        0.51237    0.54483    0.81529    1.000
    N3014    N        0.45929    0.54253    0.76620    1.000
    N3015    N        0.50490    0.75192    0.86027    1.000
    N3016    N        0.47121    0.64564    0.76019    1.000
    N3017    N        0.49689    0.68400    0.82839    1.000
    Si3018   Si       0.47968    0.64648    0.84194    1.000
    N3019    N        0.50247    0.72062    0.76014    1.000
    Si3020   Si       0.48109    0.71839    0.84889    1.000
    Si3021   Si       0.49005    0.68083    0.74312    1.000
    N3022    N        0.46254    0.57588    0.88276    1.000
    N3023    N        0.48945    0.52596    0.92367    1.000
    N3024    N        0.49682    0.59570    0.94502    1.000
    Si3025   Si       0.49024    0.60270    0.90089    1.000
    Si3026   Si       0.48810    0.62608    0.97348    1.000
    Si3027   Si       0.51256    0.55378    0.94934    1.000
    Si3028   Si       0.46134    0.53461    0.89100    1.000
    N3029    N        0.51662    0.54940    0.99278    1.000
    Si3030   Si       0.46801    0.66926    0.91211    1.000
    Si3031   Si       0.50918    0.73849    0.98015    1.000
    N3032    N        0.47458    0.70519    0.88936    1.000
    N3033    N        0.48242    0.64204    0.88334    1.000
    N3034    N        0.51551    0.72462    0.93898    1.000
    N3035    N        0.49424    0.66089    0.94790    1.000
    Si3036   Si       0.49190    0.74639    0.90405    1.000
    N3037    N        0.48219    0.84062    0.08120    1.000
    N3038    N        0.48024    0.77854    0.10636    1.000
    Si3039   Si       0.47213    0.78823    0.02173    1.000
    N3040    N        0.46793    0.83343    0.01455    1.000
    Si3041   Si       0.50233    0.86099    0.00481    1.000
    N3042    N        0.51205    0.78346    0.04005    1.000
    Si3043   Si       0.45975    0.81921    0.11160    1.000
    Si3044   Si       0.50931    0.97164    0.05440    1.000
    N3045    N        0.47722    0.95203    0.03308    1.000
    N3046    N        0.46928    0.93024    0.11076    1.000
    N3047    N        0.48767    0.99902    0.08030    1.000
    N3048    N        0.49615    0.76940    0.17178    1.000
    N3049    N        0.48517    0.83152    0.21310    1.000
    Si3050   Si       0.47454    0.87165    0.20351    1.000
    Si3051   Si       0.49472    0.81338    0.17480    1.000
    N3052    N        0.46059    0.76491    0.23556    1.000
    N3053    N        0.49760    0.88124    0.16837    1.000
    Si3054   Si       0.48273    0.80099    0.24339    1.000
    Si3055   Si       0.49341    0.00563    0.23653    1.000
    Si3056   Si       0.48501    0.91870    0.15026    1.000
    N3057    N        0.48709    0.89835    0.23563    1.000
    N3058    N        0.48846    0.98591    0.19934    1.000
    Si3059   Si       0.47839    0.78651    0.31259    1.000
    N3060    N        0.50955    0.80916    0.33430    1.000
    N3061    N        0.47041    0.81479    0.28139    1.000
    Si3062   Si       0.45967    0.96211    0.36529    1.000
    N3063    N        0.47437    0.97457    0.32641    1.000
    Si3064   Si       0.49493    0.93792    0.31459    1.000
    Si3065   Si       0.48065    0.00733    0.29932    1.000
    N3066    N        0.51872    0.99606    0.27464    1.000
    N3067    N        0.46187    0.91409    0.30271    1.000
    N3068    N        0.51540    0.79611    0.39938    1.000
    Si3069   Si       0.48137    0.81211    0.37180    1.000
    N3070    N        0.50787    0.85066    0.44852    1.000
    N3071    N        0.49069    0.78041    0.46407    1.000
    N3072    N        0.49377    0.85241    0.38168    1.000
    Si3073   Si       0.49489    0.82133    0.48032    1.000
    N3074    N        0.50204    0.91030    0.41863    1.000
    N3075    N        0.49400    0.97074    0.39078    1.000
    Si3076   Si       0.47142    0.88817    0.39270    1.000
    Si3077   Si       0.50090    0.89400    0.45773    1.000
    Si3078   Si       0.46504    0.00337    0.46957    1.000
    N3079    N        0.47504    0.79544    0.53439    1.000
    Si3080   Si       0.51556    0.80378    0.54599    1.000
    N3081    N        0.51259    0.82465    0.58308    1.000
    Si3082   Si       0.47502    0.99005    0.54772    1.000
    Si3083   Si       0.50031    0.91829    0.55555    1.000
    Si3084   Si       0.47244    0.93113    0.60850    1.000
    N3085    N        0.50889    0.90705    0.60153    1.000
    N3086    N        0.48846    0.99192    0.50545    1.000
    N3087    N        0.47187    0.95395    0.57111    1.000
    N3088    N        0.46127    0.90097    0.54169    1.000
    N3089    N        0.50909    0.01003    0.56825    1.000
    Si3090   Si       0.50188    0.81342    0.62267    1.000
    N3091    N        0.50882    0.77035    0.62664    1.000
    N3092    N        0.47455    0.82432    0.69357    1.000
    Si3093   Si       0.49475    0.85947    0.68059    1.000
    N3094    N        0.51325    0.84804    0.64345    1.000
    Si3095   Si       0.46229    0.81174    0.73297    1.000
    N3096    N        0.46862    0.89431    0.67678    1.000
    Si3097   Si       0.46299    0.98634    0.72930    1.000
    N3098    N        0.49792    0.00771    0.70971    1.000
    N3099    N        0.51331    0.94137    0.70407    1.000
    Si3100   Si       0.47601    0.93648    0.68372    1.000
    N3101    N        0.48085    0.80807    0.83246    1.000
    N3102    N        0.48690    0.82655    0.76270    1.000
    Si3103   Si       0.47593    0.84015    0.80357    1.000
    N3104    N        0.49826    0.87713    0.80998    1.000
    Si3105   Si       0.47767    0.91290    0.82559    1.000
    N3106    N        0.50780    0.94375    0.83632    1.000
    Si3107   Si       0.48861    0.98002    0.86145    1.000
    N3108    N        0.46829    0.98326    0.77294    1.000
    N3109    N        0.50500    0.78718    0.92040    1.000
    Si3110   Si       0.46782    0.87022    0.89160    1.000
    N3111    N        0.50916    0.86145    0.88588    1.000
    Si3112   Si       0.46606    0.80356    0.92137    1.000
    N3113    N        0.46523    0.94731    0.96617    1.000
    N3114    N        0.50429    0.89093    0.97431    1.000
    N3115    N        0.47284    0.96388    0.90042    1.000
    Si3116   Si       0.46375    0.90477    0.96331    1.000
    Si3117   Si       0.49042    0.97120    0.94078    1.000
    Si3118   Si       0.55393    0.08268    0.09192    1.000
    Si3119   Si       0.55210    0.03844    0.03539    1.000
    N3120    N        0.53174    0.12108    0.10163    1.000
    N3121    N        0.52858    0.05748    0.06515    1.000
    N3122    N        0.54167    0.12258    0.03013    1.000
    N3123    N        0.53595    0.05644    0.99868    1.000
    Si3124   Si       0.53016    0.10050    0.99520    1.000
    N3125    N        0.55099    0.22796    0.05655    1.000
    Si3126   Si       0.56053    0.19107    0.07714    1.000
    Si3127   Si       0.52816    0.23605    0.01738    1.000
    N3128    N        0.56513    0.17835    0.12004    1.000
    Si3129   Si       0.53494    0.06929    0.23046    1.000
    Si3130   Si       0.54219    0.04554    0.16146    1.000
    N3131    N        0.56094    0.06760    0.19537    1.000
    N3132    N        0.56423    0.06619    0.13069    1.000
    N3133    N        0.56891    0.12908    0.17245    1.000
    N3134    N        0.52186    0.25103    0.16850    1.000
    Si3135   Si       0.55362    0.22779    0.19569    1.000
    Si3136   Si       0.54240    0.14626    0.13828    1.000
    N3137    N        0.55676    0.03712    0.32328    1.000
    N3138    N        0.56394    0.05168    0.25789    1.000
    Si3139   Si       0.55408    0.01738    0.28556    1.000
    N3140    N        0.53934    0.09138    0.35914    1.000
    Si3141   Si       0.52275    0.05535    0.34366    1.000
    Si3142   Si       0.52731    0.12964    0.36837    1.000
    N3143    N        0.57168    0.11942    0.29373    1.000
    N3144    N        0.52243    0.10943    0.24543    1.000
    Si3145   Si       0.54984    0.14005    0.26310    1.000
    N3146    N        0.54171    0.22441    0.31520    1.000
    N3147    N        0.54302    0.15975    0.34244    1.000
    Si3148   Si       0.52591    0.18544    0.31170    1.000
    Si3149   Si       0.53569    0.25619    0.34589    1.000
    N3150    N        0.52271    0.17216    0.27225    1.000
    Si3151   Si       0.56014    0.03442    0.40232    1.000
    N3152    N        0.55106    0.06555    0.43197    1.000
    N3153    N        0.53940    0.12777    0.41019    1.000
    N3154    N        0.52263    0.03101    0.37995    1.000
    Si3155   Si       0.57342    0.09766    0.39192    1.000
    N3156    N        0.58105    0.09376    0.49247    1.000
    Si3157   Si       0.53519    0.16735    0.42877    1.000
    Si3158   Si       0.56947    0.19518    0.48105    1.000
    N3159    N        0.55082    0.25855    0.42326    1.000
    Si3160   Si       0.52500    0.14277    0.49564    1.000
    N3161    N        0.57604    0.17735    0.44164    1.000
    N3162    N        0.53900    0.22836    0.48937    1.000
    N3163    N        0.55252    0.05800    0.60073    1.000
    Si3164   Si       0.56614    0.08387    0.56988    1.000
    N3165    N        0.53704    0.10420    0.54633    1.000
    Si3166   Si       0.52727    0.07455    0.51092    1.000
    N3167    N        0.54682    0.03408    0.50202    1.000
    Si3168   Si       0.53640    0.23582    0.53423    1.000
    N3169    N        0.56601    0.20994    0.55231    1.000
    Si3170   Si       0.54906    0.19885    0.59179    1.000
    N3171    N        0.56389    0.15744    0.50575    1.000
    N3172    N        0.54163    0.23631    0.61383    1.000
    N3173    N        0.52179    0.16511    0.59077    1.000
    N3174    N        0.51851    0.01956    0.64210    1.000
    N3175    N        0.56532    0.11530    0.70953    1.000
    Si3176   Si       0.54997    0.09361    0.67464    1.000
    N3177    N        0.54445    0.12164    0.64018    1.000
    Si3178   Si       0.52713    0.21954    0.68323    1.000
    Si3179   Si       0.54078    0.20214    0.74177    1.000
    N3180    N        0.56235    0.21538    0.70550    1.000
    N3181    N        0.51766    0.18238    0.66283    1.000
    N3182    N        0.53396    0.03601    0.78880    1.000
    Si3183   Si       0.55431    0.09816    0.85587    1.000
    N3184    N        0.54707    0.05451    0.85615    1.000
    N3185    N        0.52905    0.10245    0.76484    1.000
    Si3186   Si       0.56689    0.02346    0.76368    1.000
    Si3187   Si       0.54056    0.01749    0.83196    1.000
    N3188    N        0.54362    0.12999    0.82744    1.000
    Si3189   Si       0.56956    0.09796    0.74873    1.000
    N3190    N        0.54814    0.23273    0.76874    1.000
    Si3191   Si       0.56050    0.19136    0.85543    1.000
    N3192    N        0.54088    0.16637    0.76379    1.000
    Si3193   Si       0.56634    0.14924    0.79699    1.000
    N3194    N        0.52339    0.21043    0.83987    1.000
    Si3195   Si       0.53812    0.25102    0.85786    1.000
    Si3196   Si       0.51909    0.23016    0.80207    1.000
    Si3197   Si       0.52584    0.04134    0.89346    1.000
    N3198    N        0.54625    0.04748    0.93070    1.000
    N3199    N        0.54368    0.10770    0.89771    1.000
    Si3200   Si       0.53488    0.02493    0.96841    1.000
    N3201    N        0.55733    0.11017    0.96448    1.000
    Si3202   Si       0.56488    0.08751    0.92867    1.000
    N3203    N        0.57580    0.23131    0.86598    1.000
    N3204    N        0.55521    0.17372    0.89519    1.000
    Si3205   Si       0.52215    0.14713    0.90247    1.000
    N3206    N        0.54273    0.22396    0.93774    1.000
    Si3207   Si       0.57229    0.19357    0.92916    1.000
    N3208    N        0.53901    0.32700    0.02208    1.000
    Si3209   Si       0.55143    0.32065    0.06272    1.000
    N3210    N        0.55414    0.36002    0.08828    1.000
    N3211    N        0.56080    0.26460    0.00576    1.000
    N3212    N        0.54011    0.46184    0.01628    1.000
    Si3213   Si       0.54827    0.44193    0.05279    1.000
    N3214    N        0.57024    0.46909    0.07996    1.000
    N3215    N        0.54618    0.36676    0.23444    1.000
    Si3216   Si       0.54823    0.28686    0.17100    1.000
    Si3217   Si       0.54902    0.34513    0.13099    1.000
    N3218    N        0.53196    0.32670    0.18096    1.000
    N3219    N        0.56629    0.30363    0.13215    1.000
    Si3220   Si       0.56424    0.35341    0.19684    1.000
    N3221    N        0.57005    0.37460    0.15810    1.000
    N3222    N        0.56890    0.26723    0.20433    1.000
    N3223    N        0.52233    0.41732    0.19205    1.000
    N3224    N        0.53999    0.43631    0.12747    1.000
    Si3225   Si       0.53184    0.40748    0.23476    1.000
    Si3226   Si       0.55007    0.41292    0.16183    1.000
    N3227    N        0.56175    0.43705    0.24358    1.000
    N3228    N        0.54148    0.36180    0.30347    1.000
    N3229    N        0.54252    0.29427    0.32689    1.000
    Si3230   Si       0.56692    0.35118    0.26960    1.000
    N3231    N        0.57401    0.30841    0.26778    1.000
    N3232    N        0.54533    0.43394    0.31282    1.000
    N3233    N        0.54442    0.49832    0.30236    1.000
    Si3234   Si       0.52864    0.39635    0.32777    1.000
    Si3235   Si       0.56824    0.46834    0.27606    1.000
    N3236    N        0.53690    0.39382    0.37143    1.000
    N3237    N        0.53277    0.34265    0.41371    1.000
    N3238    N        0.52991    0.30036    0.47561    1.000
    Si3239   Si       0.55146    0.26507    0.46610    1.000
    Si3240   Si       0.57682    0.34236    0.41666    1.000
    N3241    N        0.54071    0.47334    0.48168    1.000
    Si3242   Si       0.56560    0.41431    0.39600    1.000
    N3243    N        0.54307    0.49239    0.40884    1.000
    N3244    N        0.56647    0.41695    0.44288    1.000
    Si3245   Si       0.53355    0.43134    0.46633    1.000
    Si3246   Si       0.54543    0.50242    0.45087    1.000
    N3247    N        0.54309    0.27683    0.53655    1.000
    N3248    N        0.55072    0.37387    0.61912    1.000
    N3249    N        0.52114    0.34728    0.53549    1.000
    Si3250   Si       0.52878    0.39016    0.53391    1.000
    N3251    N        0.54258    0.45654    0.55208    1.000
    Si3252   Si       0.54695    0.48816    0.52358    1.000
    N3253    N        0.57093    0.39353    0.53866    1.000
    Si3254   Si       0.57653    0.25975    0.62128    1.000
    N3255    N        0.55281    0.31149    0.70486    1.000
    Si3256   Si       0.55019    0.34873    0.65527    1.000
    N3257    N        0.54563    0.38034    0.68318    1.000
    Si3258   Si       0.51865    0.29395    0.68449    1.000
    Si3259   Si       0.57166    0.39080    0.71766    1.000
    Si3260   Si       0.57610    0.46039    0.68642    1.000
    N3261    N        0.52900    0.49085    0.74453    1.000
    Si3262   Si       0.54412    0.48438    0.62728    1.000
    N3263    N        0.54450    0.45006    0.65625    1.000
    Si3264   Si       0.52774    0.44890    0.73552    1.000
    N3265    N        0.56480    0.43325    0.71839    1.000
    Si3266   Si       0.52110    0.41320    0.66994    1.000
    N3267    N        0.55479    0.33689    0.82014    1.000
    Si3268   Si       0.52548    0.35325    0.84596    1.000
    N3269    N        0.54097    0.26845    0.81841    1.000
    N3270    N        0.55218    0.37168    0.75163    1.000
    Si3271   Si       0.52572    0.30713    0.80992    1.000
    Si3272   Si       0.57219    0.26237    0.78812    1.000
    Si3273   Si       0.55202    0.32751    0.74576    1.000
    Si3274   Si       0.53822    0.39620    0.78724    1.000
    N3275    N        0.53580    0.47681    0.82313    1.000
    N3276    N        0.57180    0.41871    0.80244    1.000
    Si3277   Si       0.57655    0.45928    0.81990    1.000
    N3278    N        0.51952    0.27100    0.89234    1.000
    N3279    N        0.52940    0.30004    0.95634    1.000
    Si3280   Si       0.54177    0.26639    0.92885    1.000
    N3281    N        0.54285    0.36856    0.88160    1.000
    Si3282   Si       0.55686    0.30556    0.98908    1.000
    N3283    N        0.57387    0.44584    0.95639    1.000
    Si3284   Si       0.53548    0.44049    0.93572    1.000
    N3285    N        0.53684    0.46380    0.89997    1.000
    Si3286   Si       0.56954    0.48674    0.88589    1.000
    Si3287   Si       0.57287    0.47268    0.99202    1.000
    N3288    N        0.54635    0.60617    0.06422    1.000
    Si3289   Si       0.55283    0.61950    0.02069    1.000
    N3290    N        0.56238    0.53776    0.04611    1.000
    Si3291   Si       0.55834    0.54671    0.00474    1.000
    N3292    N        0.57364    0.58811    0.99814    1.000
    Si3293   Si       0.57059    0.57216    0.07254    1.000
    N3294    N        0.57450    0.54281    0.10588    1.000
    Si3295   Si       0.53611    0.64072    0.08781    1.000
    Si3296   Si       0.56660    0.68794    0.00422    1.000
    N3297    N        0.52563    0.70509    0.00563    1.000
    N3298    N        0.57305    0.65753    0.03413    1.000
    N3299    N        0.57347    0.66156    0.10292    1.000
    N3300    N        0.58140    0.61618    0.21318    1.000
    N3301    N        0.52209    0.53982    0.20927    1.000
    Si3302   Si       0.55828    0.55381    0.14544    1.000
    Si3303   Si       0.53220    0.62363    0.15427    1.000
    Si3304   Si       0.56475    0.53389    0.22117    1.000
    N3305    N        0.56683    0.59861    0.14915    1.000
    N3306    N        0.51909    0.72437    0.21354    1.000
    Si3307   Si       0.54846    0.75486    0.22275    1.000
    Si3308   Si       0.55957    0.65352    0.21284    1.000
    N3309    N        0.54783    0.66116    0.16925    1.000
    N3310    N        0.55451    0.62578    0.28611    1.000
    N3311    N        0.54943    0.56692    0.32059    1.000
    N3312    N        0.55864    0.56253    0.25375    1.000
    Si3313   Si       0.56425    0.53718    0.29141    1.000
    Si3314   Si       0.55469    0.55105    0.36103    1.000
    Si3315   Si       0.52610    0.60501    0.31640    1.000
    N3316    N        0.52635    0.63069    0.35111    1.000
    Si3317   Si       0.57744    0.60360    0.25693    1.000
    Si3318   Si       0.55882    0.67004    0.28605    1.000
    N3319    N        0.52677    0.71986    0.35367    1.000
    Si3320   Si       0.56972    0.71606    0.34892    1.000
    N3321    N        0.52180    0.69215    0.28529    1.000
    Si3322   Si       0.56266    0.62666    0.37353    1.000
    N3323    N        0.52559    0.60214    0.46027    1.000
    Si3324   Si       0.53006    0.56741    0.48608    1.000
    N3325    N        0.57365    0.58500    0.37935    1.000
    N3326    N        0.53745    0.73638    0.42873    1.000
    Si3327   Si       0.55062    0.71510    0.46614    1.000
    N3328    N        0.53972    0.67303    0.47047    1.000
    Si3329   Si       0.55269    0.63440    0.45318    1.000
    N3330    N        0.56548    0.64389    0.41244    1.000
    Si3331   Si       0.55644    0.55706    0.55114    1.000
    N3332    N        0.52965    0.58931    0.56321    1.000
    N3333    N        0.53055    0.52261    0.54485    1.000
    N3334    N        0.56558    0.56644    0.50991    1.000
    Si3335   Si       0.54883    0.62848    0.56762    1.000
    N3336    N        0.56195    0.64980    0.53251    1.000
    Si3337   Si       0.53226    0.67676    0.51427    1.000
    N3338    N        0.54628    0.71995    0.50993    1.000
    N3339    N        0.54513    0.71438    0.60740    1.000
    Si3340   Si       0.56423    0.74810    0.53664    1.000
    Si3341   Si       0.52548    0.67751    0.62040    1.000
    Si3342   Si       0.55048    0.59076    0.72102    1.000
    N3343    N        0.56375    0.55364    0.71018    1.000
    Si3344   Si       0.56106    0.51909    0.73822    1.000
    N3345    N        0.54295    0.51572    0.65841    1.000
    N3346    N        0.57460    0.62578    0.71591    1.000
    N3347    N        0.56355    0.74749    0.74266    1.000
    N3348    N        0.51922    0.66500    0.71561    1.000
    Si3349   Si       0.55707    0.65801    0.73832    1.000
    N3350    N        0.55888    0.75052    0.67223    1.000
    N3351    N        0.54929    0.65408    0.64957    1.000
    Si3352   Si       0.54297    0.56609    0.79331    1.000
    Si3353   Si       0.54004    0.61744    0.84597    1.000
    N3354    N        0.56385    0.58910    0.82331    1.000
    N3355    N        0.52816    0.59033    0.75891    1.000
    N3356    N        0.57060    0.53675    0.77560    1.000
    N3357    N        0.55253    0.52312    0.86903    1.000
    Si3358   Si       0.51860    0.51049    0.84431    1.000
    N3359    N        0.55285    0.71670    0.80636    1.000
    N3360    N        0.53418    0.65458    0.77598    1.000
    Si3361   Si       0.53662    0.67755    0.81241    1.000
    Si3362   Si       0.53668    0.74131    0.77513    1.000
    N3363    N        0.55926    0.65881    0.84338    1.000
    N3364    N        0.52847    0.59728    0.88167    1.000
    N3365    N        0.55087    0.55519    0.93058    1.000
    Si3366   Si       0.55458    0.56350    0.88734    1.000
    N3367    N        0.56965    0.51429    0.97989    1.000
    N3368    N        0.56048    0.67395    0.90855    1.000
    Si3369   Si       0.52998    0.68493    0.94058    1.000
    N3370    N        0.56202    0.66805    0.96772    1.000
    N3371    N        0.54458    0.82365    0.08294    1.000
    Si3372   Si       0.54449    0.79479    0.01247    1.000
    Si3373   Si       0.51929    0.86030    0.07926    1.000
    Si3374   Si       0.51775    0.78875    0.08298    1.000
    N3375    N        0.53825    0.75947    0.10797    1.000
    N3376    N        0.51621    0.88042    0.04101    1.000
    N3377    N        0.53239    0.88634    0.11157    1.000
    N3378    N        0.54048    0.94570    0.06976    1.000
    N3379    N        0.54804    0.93482    0.00058    1.000
    Si3380   Si       0.54417    0.91349    0.03779    1.000
    Si3381   Si       0.56574    0.97326    0.00842    1.000
    N3382    N        0.53578    0.99799    0.03226    1.000
    Si3383   Si       0.54653    0.92995    0.11346    1.000
    N3384    N        0.57166    0.76967    0.18934    1.000
    Si3385   Si       0.53568    0.86877    0.15214    1.000
    N3386    N        0.53700    0.82726    0.16706    1.000
    N3387    N        0.52361    0.78814    0.24102    1.000
    Si3388   Si       0.57424    0.81437    0.18501    1.000
    N3389    N        0.55185    0.00360    0.17139    1.000
    N3390    N        0.52171    0.94647    0.14771    1.000
    Si3391   Si       0.52533    0.97118    0.18343    1.000
    N3392    N        0.54746    0.96346    0.22123    1.000
    N3393    N        0.57243    0.88565    0.16820    1.000
    N3394    N        0.56444    0.89550    0.23614    1.000
    N3395    N        0.55711    0.86985    0.33347    1.000
    N3396    N        0.56145    0.80580    0.29362    1.000
    Si3397   Si       0.53752    0.83611    0.31377    1.000
    Si3398   Si       0.54607    0.82256    0.25530    1.000
    N3399    N        0.52646    0.85469    0.27616    1.000
    Si3400   Si       0.54382    0.96174    0.26404    1.000
    Si3401   Si       0.55289    0.91069    0.32293    1.000
    N3402    N        0.52942    0.92640    0.28461    1.000
    Si3403   Si       0.52478    0.89323    0.25660    1.000
    N3404    N        0.52004    0.92482    0.34792    1.000
    N3405    N        0.56748    0.84311    0.40093    1.000
    N3406    N        0.55938    0.79578    0.45232    1.000
    Si3407   Si       0.52485    0.83957    0.41013    1.000
    Si3408   Si       0.52364    0.77750    0.43791    1.000
    Si3409   Si       0.56751    0.80991    0.49280    1.000
    N3410    N        0.53424    0.90265    0.48468    1.000
    Si3411   Si       0.52276    0.93702    0.38843    1.000
    N3412    N        0.56573    0.93707    0.40259    1.000
    N3413    N        0.55186    0.96894    0.47095    1.000
    Si3414   Si       0.52683    0.00132    0.48250    1.000
    Si3415   Si       0.57886    0.96592    0.43609    1.000
    N3416    N        0.56108    0.87333    0.60276    1.000
    N3417    N        0.52844    0.82287    0.50912    1.000
    Si3418   Si       0.54235    0.86637    0.50998    1.000
    N3419    N        0.53085    0.76576    0.55758    1.000
    Si3420   Si       0.52145    0.86602    0.58836    1.000
    N3421    N        0.52446    0.88141    0.54656    1.000
    N3422    N        0.53010    0.94607    0.53844    1.000
    Si3423   Si       0.55140    0.92055    0.60721    1.000
    N3424    N        0.54298    0.96387    0.60568    1.000
    Si3425   Si       0.53918    0.97825    0.56400    1.000
    Si3426   Si       0.55376    0.93664    0.50194    1.000
    N3427    N        0.57802    0.99203    0.55143    1.000
    N3428    N        0.52980    0.87123    0.70306    1.000
    Si3429   Si       0.55125    0.87071    0.64526    1.000
    N3430    N        0.54151    0.80809    0.72336    1.000
    Si3431   Si       0.56206    0.84163    0.70580    1.000
    Si3432   Si       0.54098    0.76619    0.71133    1.000
    Si3433   Si       0.55206    0.99080    0.63870    1.000
    N3434    N        0.55829    0.97756    0.67809    1.000
    N3435    N        0.56067    0.91515    0.65057    1.000
    Si3436   Si       0.53629    0.90864    0.72226    1.000
    Si3437   Si       0.53084    0.98003    0.71077    1.000
    N3438    N        0.55370    0.98428    0.74570    1.000
    N3439    N        0.55406    0.84940    0.77309    1.000
    N3440    N        0.54813    0.81049    0.85670    1.000
    Si3441   Si       0.52825    0.81652    0.76449    1.000
    N3442    N        0.52876    0.78341    0.79238    1.000
    Si3443   Si       0.52014    0.78528    0.83414    1.000
    Si3444   Si       0.53762    0.88532    0.79369    1.000
    N3445    N        0.53739    0.91552    0.76387    1.000
    Si3446   Si       0.55116    0.93880    0.84018    1.000
    N3447    N        0.56099    0.98021    0.82706    1.000
    N3448    N        0.56457    0.90233    0.82219    1.000
    Si3449   Si       0.57021    0.94563    0.75852    1.000
    Si3450   Si       0.56537    0.84930    0.96306    1.000
    Si3451   Si       0.54558    0.84031    0.88755    1.000
    N3452    N        0.55597    0.82531    0.92756    1.000
    Si3453   Si       0.54549    0.78348    0.93827    1.000
    N3454    N        0.53656    0.77066    0.97796    1.000
    N3455    N        0.53833    0.83866    0.99602    1.000
    N3456    N        0.53081    0.95344    0.93650    1.000
    N3457    N        0.52613    0.99791    0.88582    1.000
    Si3458   Si       0.55314    0.96983    0.90411    1.000
    N3459    N        0.56855    0.99961    0.97496    1.000
    Si3460   Si       0.53838    0.91846    0.96241    1.000
    N3461    N        0.56608    0.89057    0.94327    1.000
    N3462    N        0.56301    0.93487    0.88184    1.000
    N3463    N        0.59372    0.03869    0.03971    1.000
    N3464    N        0.58645    0.10182    0.07139    1.000
    N3465    N        0.61101    0.12343    0.00833    1.000
    Si3466   Si       0.62561    0.09716    0.09258    1.000
    Si3467   Si       0.58429    0.13157    0.04102    1.000
    Si3468   Si       0.63445    0.04204    0.05116    1.000
    N3469    N        0.59250    0.17180    0.05628    1.000
    N3470    N        0.61856    0.23675    0.03831    1.000
    Si3471   Si       0.62770    0.19488    0.04991    1.000
    Si3472   Si       0.58203    0.25696    0.04301    1.000
    N3473    N        0.62513    0.07080    0.18352    1.000
    Si3474   Si       0.59958    0.05599    0.21670    1.000
    Si3475   Si       0.58773    0.09055    0.16152    1.000
    N3476    N        0.61699    0.11327    0.13288    1.000
    N3477    N        0.61172    0.01280    0.21226    1.000
    N3478    N        0.58197    0.19850    0.17926    1.000
    N3479    N        0.59916    0.23856    0.12287    1.000
    N3480    N        0.58064    0.16134    0.24132    1.000
    N3481    N        0.62822    0.14408    0.19850    1.000
    N3482    N        0.63439    0.17561    0.13560    1.000
    Si3483   Si       0.59844    0.19985    0.14006    1.000
    Si3484   Si       0.58802    0.16119    0.19922    1.000
    N3485    N        0.61498    0.06710    0.31119    1.000
    Si3486   Si       0.59660    0.04190    0.34190    1.000
    Si3487   Si       0.58835    0.08062    0.28025    1.000
    N3488    N        0.59519    0.12596    0.36395    1.000
    N3489    N        0.61205    0.08715    0.24457    1.000
    Si3490   Si       0.58231    0.14587    0.32861    1.000
    Si3491   Si       0.61275    0.17685    0.27051    1.000
    N3492    N        0.59756    0.18320    0.31147    1.000
    Si3493   Si       0.58688    0.22305    0.32562    1.000
    N3494    N        0.60277    0.25709    0.30152    1.000
    Si3495   Si       0.63590    0.25087    0.27523    1.000
    N3496    N        0.63427    0.21047    0.25565    1.000
    N3497    N        0.57796    0.24643    0.36245    1.000
    N3498    N        0.59887    0.11043    0.42793    1.000
    Si3499   Si       0.58745    0.07853    0.45424    1.000
    N3500    N        0.59122    0.05732    0.38207    1.000
    N3501    N        0.62085    0.05248    0.44892    1.000
    Si3502   Si       0.63240    0.06117    0.40708    1.000
    Si3503   Si       0.63653    0.13110    0.38008    1.000
    Si3504   Si       0.60930    0.15077    0.43931    1.000
    N3505    N        0.62486    0.24216    0.41765    1.000
    Si3506   Si       0.62339    0.24444    0.46490    1.000
    N3507    N        0.60895    0.21254    0.49207    1.000
    N3508    N        0.62324    0.14642    0.48010    1.000
    N3509    N        0.63428    0.16449    0.40723    1.000
    N3510    N        0.58970    0.11363    0.59075    1.000
    N3511    N        0.59360    0.05820    0.55010    1.000
    N3512    N        0.62942    0.05930    0.60698    1.000
    Si3513   Si       0.58454    0.02469    0.52496    1.000
    Si3514   Si       0.59846    0.12886    0.51190    1.000
    N3515    N        0.63120    0.11741    0.53904    1.000
    Si3516   Si       0.62962    0.09810    0.57878    1.000
    Si3517   Si       0.60459    0.21972    0.53531    1.000
    N3518    N        0.61157    0.23857    0.60710    1.000
    N3519    N        0.58276    0.17987    0.61464    1.000
    N3520    N        0.61328    0.26107    0.54582    1.000
    N3521    N        0.63619    0.19121    0.54319    1.000
    Si3522   Si       0.58952    0.04951    0.62383    1.000
    N3523    N        0.57779    0.05537    0.73497    1.000
    N3524    N        0.58036    0.06441    0.66341    1.000
    N3525    N        0.62673    0.09389    0.70509    1.000
    N3526    N        0.62767    0.02417    0.68795    1.000
    Si3527   Si       0.60325    0.05766    0.69949    1.000
    N3528    N        0.59257    0.00679    0.62876    1.000
    Si3529   Si       0.60426    0.13070    0.69800    1.000
    N3530    N        0.61682    0.16516    0.71875    1.000
    N3531    N        0.61079    0.13697    0.65501    1.000
    N3532    N        0.62398    0.24176    0.72709    1.000
    Si3533   Si       0.59974    0.23114    0.69216    1.000
    Si3534   Si       0.61923    0.20119    0.62640    1.000
    Si3535   Si       0.58191    0.13830    0.62480    1.000
    N3536    N        0.62963    0.21004    0.66786    1.000
    N3537    N        0.59808    0.10602    0.85304    1.000
    Si3538   Si       0.62078    0.10616    0.81468    1.000
    N3539    N        0.59363    0.11817    0.78175    1.000
    N3540    N        0.60222    0.02029    0.78903    1.000
    Si3541   Si       0.61821    0.20414    0.81062    1.000
    N3542    N        0.60912    0.24581    0.80085    1.000
    N3543    N        0.58407    0.18137    0.82145    1.000
    N3544    N        0.62223    0.03768    0.93857    1.000
    Si3545   Si       0.62124    0.11486    0.88874    1.000
    N3546    N        0.60566    0.10187    0.92651    1.000
    Si3547   Si       0.59799    0.12476    0.96692    1.000
    N3548    N        0.59508    0.16286    0.95073    1.000
    N3549    N        0.61347    0.21217    0.91964    1.000
    Si3550   Si       0.60377    0.24599    0.89565    1.000
    Si3551   Si       0.63277    0.17556    0.92935    1.000
    N3552    N        0.62021    0.35663    0.06857    1.000
    Si3553   Si       0.59449    0.28028    0.11055    1.000
    Si3554   Si       0.62540    0.31330    0.06283    1.000
    N3555    N        0.58311    0.29195    0.06841    1.000
    N3556    N        0.63257    0.29765    0.10575    1.000
    Si3557   Si       0.58815    0.38387    0.08019    1.000
    N3558    N        0.60609    0.41212    0.11109    1.000
    Si3559   Si       0.61508    0.42184    0.01914    1.000
    N3560    N        0.61071    0.46409    0.01075    1.000
    N3561    N        0.58166    0.40974    0.04465    1.000
    Si3562   Si       0.57970    0.44971    0.11820    1.000
    N3563    N        0.63100    0.27498    0.24065    1.000
    Si3564   Si       0.59267    0.29150    0.23130    1.000
    N3565    N        0.59574    0.32636    0.20461    1.000
    Si3566   Si       0.63499    0.37914    0.23720    1.000
    Si3567   Si       0.61012    0.39652    0.15876    1.000
    N3568    N        0.60749    0.39418    0.20563    1.000
    N3569    N        0.62672    0.46257    0.21336    1.000
    Si3570   Si       0.62999    0.46896    0.16913    1.000
    Si3571   Si       0.62154    0.49772    0.24129    1.000
    Si3572   Si       0.59148    0.43507    0.21316    1.000
    N3573    N        0.58789    0.43696    0.16723    1.000
    N3574    N        0.61358    0.47729    0.12528    1.000
    N3575    N        0.60643    0.32543    0.32478    1.000
    N3576    N        0.60693    0.36829    0.27065    1.000
    Si3577   Si       0.62430    0.36363    0.30986    1.000
    Si3578   Si       0.62226    0.31801    0.36529    1.000
    Si3579   Si       0.58302    0.29548    0.30711    1.000
    N3580    N        0.60700    0.39483    0.33496    1.000
    N3581    N        0.60364    0.45871    0.29837    1.000
    Si3582   Si       0.58547    0.43340    0.33035    1.000
    N3583    N        0.57755    0.49949    0.24598    1.000
    Si3584   Si       0.60469    0.31694    0.48304    1.000
    N3585    N        0.59424    0.30895    0.39615    1.000
    N3586    N        0.59032    0.34862    0.45875    1.000
    N3587    N        0.59393    0.27563    0.46932    1.000
    Si3588   Si       0.59004    0.26313    0.40147    1.000
    N3589    N        0.59625    0.38108    0.40344    1.000
    Si3590   Si       0.62409    0.50482    0.44522    1.000
    Si3591   Si       0.60203    0.39081    0.44757    1.000
    N3592    N        0.61784    0.47369    0.41627    1.000
    N3593    N        0.58137    0.44613    0.37176    1.000
    Si3594   Si       0.62733    0.39062    0.37381    1.000
    Si3595   Si       0.58407    0.48491    0.38904    1.000
    N3596    N        0.60665    0.35445    0.58348    1.000
    Si3597   Si       0.60980    0.31986    0.61091    1.000
    Si3598   Si       0.60009    0.36265    0.54191    1.000
    N3599    N        0.59007    0.32322    0.52405    1.000
    Si3600   Si       0.58270    0.28989    0.55139    1.000
    N3601    N        0.57768    0.29471    0.59490    1.000
    Si3602   Si       0.59326    0.38337    0.61549    1.000
    Si3603   Si       0.62499    0.48137    0.52334    1.000
    N3604    N        0.61797    0.44278    0.53743    1.000
    N3605    N        0.59042    0.42381    0.59861    1.000
    N3606    N        0.58488    0.49317    0.60933    1.000
    N3607    N        0.58872    0.50419    0.52025    1.000
    Si3608   Si       0.57955    0.43120    0.55784    1.000
    Si3609   Si       0.60838    0.45604    0.62190    1.000
    N3610    N        0.59216    0.33317    0.65014    1.000
    Si3611   Si       0.58926    0.30241    0.68229    1.000
    N3612    N        0.62109    0.30920    0.70952    1.000
    N3613    N        0.58476    0.26244    0.66502    1.000
    N3614    N        0.60940    0.44716    0.66443    1.000
    N3615    N        0.58956    0.49801    0.70642    1.000
    Si3616   Si       0.63041    0.41105    0.67703    1.000
    N3617    N        0.61326    0.38139    0.70389    1.000
    Si3618   Si       0.63148    0.50135    0.71860    1.000
    N3619    N        0.61831    0.35961    0.79051    1.000
    N3620    N        0.61841    0.30697    0.83007    1.000
    Si3621   Si       0.59186    0.32904    0.80267    1.000
    N3622    N        0.57702    0.30238    0.77222    1.000
    N3623    N        0.60889    0.39154    0.85411    1.000
    Si3624   Si       0.60677    0.39430    0.81270    1.000
    N3625    N        0.60665    0.48654    0.80315    1.000
    N3626    N        0.59180    0.45821    0.86053    1.000
    Si3627   Si       0.62691    0.30790    0.87056    1.000
    Si3628   Si       0.58615    0.37167    0.88766    1.000
    N3629    N        0.59300    0.32472    0.97514    1.000
    Si3630   Si       0.60473    0.31484    0.93350    1.000
    N3631    N        0.60104    0.33096    0.89431    1.000
    N3632    N        0.58498    0.27488    0.92443    1.000
    N3633    N        0.63766    0.26458    0.87813    1.000
    N3634    N        0.59992    0.40261    0.91561    1.000
    N3635    N        0.63312    0.41158    0.97858    1.000
    N3636    N        0.59730    0.50385    0.91539    1.000
    Si3637   Si       0.61330    0.42901    0.94594    1.000
    Si3638   Si       0.61747    0.42818    0.88049    1.000
    N3639    N        0.61515    0.57928    0.06312    1.000
    Si3640   Si       0.57889    0.51096    0.07498    1.000
    N3641    N        0.62319    0.50879    0.05992    1.000
    N3642    N        0.60275    0.71091    0.00993    1.000
    Si3643   Si       0.59652    0.67294    0.06631    1.000
    Si3644   Si       0.60264    0.74425    0.03904    1.000
    N3645    N        0.59190    0.71751    0.07266    1.000
    Si3646   Si       0.57901    0.74459    0.10547    1.000
    N3647    N        0.58271    0.53946    0.17905    1.000
    Si3648   Si       0.59882    0.61236    0.17361    1.000
    Si3649   Si       0.62584    0.54448    0.18744    1.000
    N3650    N        0.62728    0.53736    0.22860    1.000
    N3651    N        0.63442    0.58455    0.17302    1.000
    Si3652   Si       0.60170    0.74366    0.17624    1.000
    Si3653   Si       0.57962    0.67632    0.14477    1.000
    N3654    N        0.61053    0.65271    0.16357    1.000
    N3655    N        0.61159    0.71051    0.20418    1.000
    Si3656   Si       0.60315    0.71193    0.24648    1.000
    N3657    N        0.58770    0.71969    0.14175    1.000
    N3658    N        0.60915    0.53897    0.29504    1.000
    N3659    N        0.62111    0.60239    0.26290    1.000
    Si3660   Si       0.62178    0.53310    0.33685    1.000
    N3661    N        0.58878    0.52101    0.36332    1.000
    Si3662   Si       0.63261    0.55995    0.26515    1.000
    N3663    N        0.57907    0.67522    0.24783    1.000
    N3664    N        0.58568    0.75378    0.33530    1.000
    Si3665   Si       0.61733    0.66789    0.33283    1.000
    N3666    N        0.60669    0.63905    0.36550    1.000
    N3667    N        0.57833    0.68348    0.32131    1.000
    N3668    N        0.57643    0.74457    0.25677    1.000
    N3669    N        0.63111    0.59669    0.42162    1.000
    N3670    N        0.63141    0.55903    0.48559    1.000
    Si3671   Si       0.61678    0.59745    0.37824    1.000
    N3672    N        0.58535    0.51910    0.45575    1.000
    Si3673   Si       0.62785    0.62871    0.45219    1.000
    Si3674   Si       0.59542    0.53783    0.49542    1.000
    N3675    N        0.59217    0.62993    0.47395    1.000
    N3676    N        0.58767    0.70695    0.38764    1.000
    N3677    N        0.63186    0.66418    0.42771    1.000
    N3678    N        0.59346    0.72242    0.45580    1.000
    Si3679   Si       0.62845    0.71495    0.48171    1.000
    Si3680   Si       0.58201    0.73771    0.41661    1.000
    Si3681   Si       0.60051    0.66742    0.39957    1.000
    Si3682   Si       0.61038    0.59746    0.57317    1.000
    N3683    N        0.62176    0.61374    0.53379    1.000
    N3684    N        0.59135    0.55619    0.57571    1.000
    Si3685   Si       0.60605    0.53211    0.60780    1.000
    N3686    N        0.58327    0.62492    0.59220    1.000
    Si3687   Si       0.58873    0.72098    0.60642    1.000
    Si3688   Si       0.60004    0.64481    0.51490    1.000
    N3689    N        0.59462    0.72803    0.56167    1.000
    N3690    N        0.62014    0.68526    0.51212    1.000
    Si3691   Si       0.63034    0.71295    0.54474    1.000
    N3692    N        0.60953    0.68311    0.62045    1.000
    N3693    N        0.60686    0.54493    0.64925    1.000
    N3694    N        0.61203    0.62245    0.65519    1.000
    Si3695   Si       0.61491    0.62754    0.69778    1.000
    Si3696   Si       0.57972    0.53195    0.67765    1.000
    N3697    N        0.61960    0.73012    0.69676    1.000
    N3698    N        0.58713    0.68506    0.74179    1.000
    Si3699   Si       0.60170    0.72499    0.73660    1.000
    N3700    N        0.60862    0.75194    0.62694    1.000
    Si3701   Si       0.58711    0.64720    0.62926    1.000
    Si3702   Si       0.60444    0.58705    0.83836    1.000
    Si3703   Si       0.60962    0.52916    0.79141    1.000
    N3704    N        0.62466    0.54941    0.82712    1.000
    N3705    N        0.62815    0.62219    0.82806    1.000
    N3706    N        0.63300    0.53228    0.75290    1.000
    N3707    N        0.61776    0.69505    0.81505    1.000
    Si3708   Si       0.59013    0.72561    0.82545    1.000
    N3709    N        0.63253    0.73677    0.76634    1.000
    N3710    N        0.58894    0.72340    0.86840    1.000
    Si3711   Si       0.58245    0.67964    0.87271    1.000
    N3712    N        0.59258    0.58109    0.88108    1.000
    Si3713   Si       0.61216    0.59510    0.97819    1.000
    Si3714   Si       0.62147    0.58658    0.91373    1.000
    N3715    N        0.61905    0.56126    0.95030    1.000
    N3716    N        0.60712    0.61980    0.94129    1.000
    Si3717   Si       0.58519    0.53284    0.94451    1.000
    Si3718   Si       0.60644    0.75300    0.89394    1.000
    N3719    N        0.62445    0.68458    0.94151    1.000
    Si3720   Si       0.59152    0.65806    0.93729    1.000
    N3721    N        0.62439    0.66715    0.87883    1.000
    Si3722   Si       0.61399    0.81205    0.01825    1.000
    N3723    N        0.60086    0.77910    0.09856    1.000
    N3724    N        0.61117    0.83326    0.05516    1.000
    Si3725   Si       0.58698    0.81963    0.08943    1.000
    N3726    N        0.59831    0.85506    0.11115    1.000
    Si3727   Si       0.61126    0.87477    0.07291    1.000
    N3728    N        0.58214    0.78158    0.02681    1.000
    N3729    N        0.59925    0.96658    0.03657    1.000
    N3730    N        0.58731    0.94448    0.11372    1.000
    N3731    N        0.58510    0.90309    0.05413    1.000
    Si3732   Si       0.58756    0.94413    0.07044    1.000
    N3733    N        0.61228    0.82928    0.16889    1.000
    Si3734   Si       0.60871    0.86955    0.15093    1.000
    Si3735   Si       0.59862    0.86776    0.23900    1.000
    N3736    N        0.57784    0.82986    0.22710    1.000
    Si3737   Si       0.61716    0.94586    0.14651    1.000
    N3738    N        0.59553    0.94834    0.18378    1.000
    N3739    N        0.63459    0.90479    0.14297    1.000
    Si3740   Si       0.58041    0.91264    0.20145    1.000
    N3741    N        0.62313    0.89321    0.21392    1.000
    Si3742   Si       0.58131    0.98562    0.20000    1.000
    N3743    N        0.60944    0.82291    0.34541    1.000
    N3744    N        0.62476    0.78334    0.29232    1.000
    N3745    N        0.61660    0.85451    0.27699    1.000
    Si3746   Si       0.60947    0.78014    0.36050    1.000
    Si3747   Si       0.62686    0.82511    0.30610    1.000
    Si3748   Si       0.58688    0.85570    0.36332    1.000
    Si3749   Si       0.58317    0.76771    0.29414    1.000
    Si3750   Si       0.60401    0.96848    0.31333    1.000
    N3751    N        0.60944    0.99985    0.34306    1.000
    N3752    N        0.58454    0.93722    0.33487    1.000
    N3753    N        0.57841    0.98100    0.28251    1.000
    N3754    N        0.61381    0.88854    0.37161    1.000
    N3755    N        0.59279    0.77634    0.39951    1.000
    N3756    N        0.61914    0.83766    0.43854    1.000
    Si3757   Si       0.58727    0.81355    0.42491    1.000
    Si3758   Si       0.62331    0.96376    0.48926    1.000
    Si3759   Si       0.59746    0.92901    0.37417    1.000
    N3760    N        0.61973    0.95382    0.44753    1.000
    N3761    N        0.58263    0.00025    0.41119    1.000
    N3762    N        0.63320    0.95503    0.38433    1.000
    Si3763   Si       0.61793    0.99325    0.38652    1.000
    N3764    N        0.61519    0.00561    0.49876    1.000
    N3765    N        0.61935    0.85699    0.55755    1.000
    Si3766   Si       0.62172    0.85375    0.51491    1.000
    N3767    N        0.58556    0.78248    0.51915    1.000
    Si3768   Si       0.62797    0.78363    0.52793    1.000
    N3769    N        0.58202    0.85013    0.50137    1.000
    N3770    N        0.63404    0.88598    0.61181    1.000
    N3771    N        0.63813    0.78953    0.56814    1.000
    Si3772   Si       0.60046    0.88504    0.58524    1.000
    Si3773   Si       0.60222    0.95291    0.55443    1.000
    N3774    N        0.59611    0.93933    0.51248    1.000
    N3775    N        0.58339    0.92373    0.57714    1.000
    N3776    N        0.62186    0.81755    0.62065    1.000
    Si3777   Si       0.60234    0.75908    0.67151    1.000
    Si3778   Si       0.61758    0.83207    0.66142    1.000
    N3779    N        0.60262    0.85122    0.71989    1.000
    N3780    N        0.61932    0.79694    0.68817    1.000
    N3781    N        0.57511    0.84083    0.66340    1.000
    Si3782   Si       0.58224    0.93972    0.67896    1.000
    N3783    N        0.58244    0.92197    0.71985    1.000
    Si3784   Si       0.61189    0.89156    0.72853    1.000
    Si3785   Si       0.62548    0.99450    0.65471    1.000
    N3786    N        0.62287    0.95634    0.67308    1.000
    N3787    N        0.59958    0.83822    0.82154    1.000
    Si3788   Si       0.59781    0.84474    0.77830    1.000
    N3789    N        0.61957    0.80845    0.76518    1.000
    Si3790   Si       0.58873    0.80129    0.84460    1.000
    N3791    N        0.59427    0.76670    0.81730    1.000
    Si3792   Si       0.62635    0.77341    0.78988    1.000
    Si3793   Si       0.59715    0.87621    0.83958    1.000
    N3794    N        0.61736    0.88538    0.77071    1.000
    Si3795   Si       0.60123    0.98252    0.81185    1.000
    N3796    N        0.60595    0.95075    0.78305    1.000
    N3797    N        0.62778    0.97090    0.84687    1.000
    Si3798   Si       0.63487    0.91752    0.79442    1.000
    N3799    N        0.63408    0.89750    0.83383    1.000
    N3800    N        0.61492    0.79334    0.87816    1.000
    N3801    N        0.60159    0.83437    0.98055    1.000
    N3802    N        0.57970    0.86880    0.87892    1.000
    N3803    N        0.57792    0.75932    0.92491    1.000
    Si3804   Si       0.58156    0.90241    0.90377    1.000
    Si3805   Si       0.60463    0.00019    0.95157    1.000
    Si3806   Si       0.62466    0.96095    0.89040    1.000
    N3807    N        0.62178    0.91928    0.90499    1.000
    N3808    N        0.59367    0.98165    0.91585    1.000
    N3809    N        0.65277    0.07477    0.03226    1.000
    Si3810   Si       0.67553    0.04576    0.11496    1.000
    Si3811   Si       0.65208    0.12776    0.02954    1.000
    N3812    N        0.63819    0.05634    0.09411    1.000
    N3813    N        0.69337    0.11858    0.01469    1.000
    N3814    N        0.64860    0.13062    0.07424    1.000
    Si3815   Si       0.68087    0.08045    0.99789    1.000
    N3816    N        0.65756    0.20066    0.08104    1.000
    Si3817   Si       0.66175    0.16357    0.09985    1.000
    N3818    N        0.65306    0.17281    0.02221    1.000
    Si3819   Si       0.68623    0.23210    0.08691    1.000
    Si3820   Si       0.65431    0.25723    0.02423    1.000
    N3821    N        0.68516    0.25965    0.05445    1.000
    Si3822   Si       0.66969    0.07992    0.18568    1.000
    N3823    N        0.67648    0.09770    0.22381    1.000
    N3824    N        0.67935    0.11623    0.16297    1.000
    N3825    N        0.68706    0.04768    0.15892    1.000
    Si3826   Si       0.63986    0.12057    0.23262    1.000
    N3827    N        0.68095    0.00879    0.21512    1.000
    N3828    N        0.67018    0.23703    0.19857    1.000
    N3829    N        0.68159    0.25325    0.12477    1.000
    Si3830   Si       0.67194    0.21014    0.23222    1.000
    Si3831   Si       0.64243    0.13928    0.15821    1.000
    Si3832   Si       0.65752    0.06195    0.30416    1.000
    N3833    N        0.66201    0.02899    0.27882    1.000
    N3834    N        0.68390    0.09782    0.29801    1.000
    N3835    N        0.68064    0.05237    0.34184    1.000
    Si3836   Si       0.68287    0.01716    0.36838    1.000
    Si3837   Si       0.69508    0.01589    0.25559    1.000
    Si3838   Si       0.66822    0.13858    0.30032    1.000
    N3839    N        0.65460    0.21061    0.36028    1.000
    N3840    N        0.65770    0.14314    0.34377    1.000
    Si3841   Si       0.68063    0.17994    0.34357    1.000
    N3842    N        0.64009    0.14398    0.26904    1.000
    N3843    N        0.69453    0.17331    0.30326    1.000
    N3844    N        0.69872    0.22985    0.26096    1.000
    N3845    N        0.64769    0.02224    0.39335    1.000
    N3846    N        0.65647    0.09648    0.39866    1.000
    Si3847   Si       0.64604    0.03191    0.47840    1.000
    N3848    N        0.68044    0.01289    0.46066    1.000
    N3849    N        0.68466    0.22087    0.41842    1.000
    Si3850   Si       0.69408    0.22149    0.46066    1.000
    N3851    N        0.68091    0.18535    0.48290    1.000
    N3852    N        0.66551    0.24961    0.47719    1.000
    Si3853   Si       0.64494    0.20624    0.40237    1.000
    Si3854   Si       0.66564    0.26026    0.39909    1.000
    Si3855   Si       0.66438    0.03387    0.60538    1.000
    Si3856   Si       0.66796    0.09989    0.51991    1.000
    N3857    N        0.66011    0.05884    0.50859    1.000
    N3858    N        0.65845    0.11432    0.60587    1.000
    N3859    N        0.68059    0.01704    0.56819    1.000
    N3860    N        0.68749    0.08495    0.55766    1.000
    Si3861   Si       0.69115    0.04646    0.53631    1.000
    Si3862   Si       0.69502    0.09333    0.59906    1.000
    Si3863   Si       0.66702    0.19034    0.57387    1.000
    N3864    N        0.67552    0.23300    0.57808    1.000
    N3865    N        0.65142    0.17776    0.61254    1.000
    Si3866   Si       0.64020    0.25756    0.58070    1.000
    Si3867   Si       0.64190    0.18159    0.49908    1.000
    Si3868   Si       0.66063    0.01771    0.71430    1.000
    Si3869   Si       0.66220    0.08555    0.72659    1.000
    N3870    N        0.66141    0.04614    0.74697    1.000
    N3871    N        0.67818    0.15352    0.66863    1.000
    Si3872   Si       0.64919    0.14198    0.63714    1.000
    N3873    N        0.67899    0.20115    0.72163    1.000
    Si3874   Si       0.67001    0.19638    0.67769    1.000
    Si3875   Si       0.63623    0.19931    0.73514    1.000
    N3876    N        0.67177    0.02278    0.85942    1.000
    Si3877   Si       0.66838    0.06597    0.84951    1.000
    N3878    N        0.64452    0.06984    0.81208    1.000
    N3879    N        0.66802    0.11977    0.75499    1.000
    Si3880   Si       0.64226    0.03611    0.78592    1.000
    N3881    N        0.64981    0.13818    0.81997    1.000
    Si3882   Si       0.66023    0.16320    0.85475    1.000
    Si3883   Si       0.66742    0.24049    0.85698    1.000
    Si3884   Si       0.65972    0.15328    0.78181    1.000
    N3885    N        0.64787    0.20350    0.84371    1.000
    N3886    N        0.63780    0.18960    0.77633    1.000
    Si3887   Si       0.68848    0.00910    0.89777    1.000
    Si3888   Si       0.65052    0.06826    0.92780    1.000
    N3889    N        0.64857    0.08203    0.88447    1.000
    N3890    N        0.66382    0.09576    0.95998    1.000
    N3891    N        0.68741    0.04306    0.92226    1.000
    Si3892   Si       0.68667    0.13060    0.94918    1.000
    N3893    N        0.63652    0.15724    0.89031    1.000
    N3894    N        0.67374    0.23607    0.99087    1.000
    N3895    N        0.66529    0.16819    0.95576    1.000
    Si3896   Si       0.67565    0.19308    0.99041    1.000
    Si3897   Si       0.65836    0.37640    0.06361    1.000
    N3898    N        0.69003    0.34825    0.05360    1.000
    N3899    N        0.63876    0.29956    0.02169    1.000
    Si3900   Si       0.64404    0.49154    0.02191    1.000
    Si3901   Si       0.68163    0.44359    0.05060    1.000
    N3902    N        0.68082    0.47068    0.01734    1.000
    N3903    N        0.67357    0.39399    0.10314    1.000
    N3904    N        0.65109    0.41366    0.04340    1.000
    N3905    N        0.66274    0.46041    0.08590    1.000
    Si3906   Si       0.64536    0.42958    0.11179    1.000
    Si3907   Si       0.64163    0.49672    0.09738    1.000
    N3908    N        0.69286    0.32670    0.12034    1.000
    N3909    N        0.63792    0.36270    0.15434    1.000
    N3910    N        0.65962    0.34934    0.21802    1.000
    N3911    N        0.65442    0.29825    0.17547    1.000
    Si3912   Si       0.66516    0.27737    0.21381    1.000
    Si3913   Si       0.67733    0.36436    0.13652    1.000
    Si3914   Si       0.66670    0.29285    0.13222    1.000
    Si3915   Si       0.63352    0.33436    0.18576    1.000
    N3916    N        0.65306    0.43326    0.15575    1.000
    Si3917   Si       0.66502    0.45244    0.23374    1.000
    Si3918   Si       0.69578    0.42747    0.16832    1.000
    N3919    N        0.66638    0.36933    0.30396    1.000
    Si3920   Si       0.68535    0.35673    0.34044    1.000
    N3921    N        0.66697    0.27063    0.29976    1.000
    N3922    N        0.65091    0.28410    0.36498    1.000
    Si3923   Si       0.68779    0.28019    0.33770    1.000
    N3924    N        0.64898    0.35229    0.36582    1.000
    N3925    N        0.65705    0.48440    0.26458    1.000
    N3926    N        0.66839    0.43525    0.31352    1.000
    Si3927   Si       0.64397    0.46882    0.30444    1.000
    Si3928   Si       0.68357    0.42935    0.35438    1.000
    Si3929   Si       0.68607    0.40453    0.28550    1.000
    N3930    N        0.65197    0.50154    0.33284    1.000
    N3931    N        0.65900    0.41364    0.25081    1.000
    Si3932   Si       0.69498    0.50061    0.34174    1.000
    Si3933   Si       0.67872    0.29040    0.47080    1.000
    N3934    N        0.68208    0.28975    0.42737    1.000
    N3935    N        0.64868    0.31724    0.48550    1.000
    N3936    N        0.69431    0.36775    0.48280    1.000
    N3937    N        0.65233    0.42416    0.38289    1.000
    N3938    N        0.68737    0.45873    0.44028    1.000
    Si3939   Si       0.68129    0.47149    0.48189    1.000
    Si3940   Si       0.68210    0.40609    0.46659    1.000
    N3941    N        0.64230    0.41042    0.44689    1.000
    Si3942   Si       0.65084    0.44468    0.42031    1.000
    N3943    N        0.64050    0.48699    0.48139    1.000
    Si3944   Si       0.66334    0.35143    0.50780    1.000
    N3945    N        0.64570    0.29868    0.60052    1.000
    Si3946   Si       0.68886    0.30755    0.60036    1.000
    N3947    N        0.68705    0.34261    0.54198    1.000
    N3948    N        0.69315    0.34985    0.60794    1.000
    N3949    N        0.63522    0.37919    0.52078    1.000
    N3950    N        0.65138    0.45798    0.60993    1.000
    N3951    N        0.65655    0.49353    0.54860    1.000
    Si3952   Si       0.68443    0.43272    0.60218    1.000
    Si3953   Si       0.67587    0.49489    0.58930    1.000
    Si3954   Si       0.65284    0.41631    0.53428    1.000
    N3955    N        0.67834    0.40825    0.56823    1.000
    N3956    N        0.67781    0.43147    0.50141    1.000
    N3957    N        0.68428    0.28038    0.70663    1.000
    Si3958   Si       0.67454    0.37444    0.63926    1.000
    N3959    N        0.67158    0.34463    0.67456    1.000
    Si3960   Si       0.64491    0.27887    0.72901    1.000
    N3961    N        0.66949    0.35246    0.74085    1.000
    Si3962   Si       0.64202    0.34648    0.70666    1.000
    N3963    N        0.64229    0.46742    0.74418    1.000
    N3964    N        0.66865    0.42572    0.69243    1.000
    Si3965   Si       0.67781    0.44533    0.72899    1.000
    N3966    N        0.63441    0.38936    0.63826    1.000
    Si3967   Si       0.65431    0.33855    0.78053    1.000
    N3968    N        0.67567    0.26979    0.82625    1.000
    N3969    N        0.64924    0.29536    0.76825    1.000
    N3970    N        0.68540    0.33783    0.81148    1.000
    Si3971   Si       0.68651    0.30883    0.84412    1.000
    Si3972   Si       0.64010    0.27626    0.80412    1.000
    N3973    N        0.67858    0.46622    0.81062    1.000
    Si3974   Si       0.68011    0.42124    0.80075    1.000
    Si3975   Si       0.68520    0.47242    0.85382    1.000
    Si3976   Si       0.64091    0.46475    0.78849    1.000
    N3977    N        0.63692    0.42235    0.79922    1.000
    N3978    N        0.64602    0.31194    0.94681    1.000
    N3979    N        0.66646    0.32230    0.88016    1.000
    Si3980   Si       0.67944    0.31390    0.92197    1.000
    N3981    N        0.66605    0.35443    0.99431    1.000
    Si3982   Si       0.63625    0.32649    0.98532    1.000
    N3983    N        0.65721    0.49997    0.87008    1.000
    N3984    N        0.68419    0.39662    0.93500    1.000
    Si3985   Si       0.67228    0.39340    0.97659    1.000
    Si3986   Si       0.68377    0.43668    0.91806    1.000
    N3987    N        0.64123    0.45045    0.91328    1.000
    Si3988   Si       0.63831    0.49403    0.91004    1.000
    N3989    N        0.66131    0.53069    0.11008    1.000
    N3990    N        0.67764    0.55198    0.05326    1.000
    N3991    N        0.67147    0.60639    0.09384    1.000
    N3992    N        0.64261    0.53088    0.00308    1.000
    Si3993   Si       0.68691    0.56477    0.09630    1.000
    Si3994   Si       0.63585    0.54820    0.04306    1.000
    Si3995   Si       0.64552    0.61039    0.05360    1.000
    N3996    N        0.64001    0.60209    0.00975    1.000
    N3997    N        0.66232    0.73898    0.10695    1.000
    Si3998   Si       0.67036    0.66967    0.03461    1.000
    N3999    N        0.69091    0.70608    0.04491    1.000
    N4000    N        0.63559    0.65437    0.05495    1.000
    Si4001   Si       0.69110    0.63209    0.21209    1.000
    Si4002   Si       0.67849    0.59410    0.16443    1.000
    Si4003   Si       0.67873    0.52498    0.14959    1.000
    N4004    N        0.64564    0.51091    0.17093    1.000
    N4005    N        0.69413    0.58795    0.20553    1.000
    N4006    N        0.65237    0.65281    0.22013    1.000
    N4007    N        0.68849    0.63452    0.16354    1.000
    N4008    N        0.66736    0.69749    0.16594    1.000
    Si4009   Si       0.66636    0.73821    0.15026    1.000
    Si4010   Si       0.63626    0.67714    0.18804    1.000
    N4011    N        0.67385    0.55699    0.27396    1.000
    Si4012   Si       0.68392    0.57457    0.35167    1.000
    N4013    N        0.63819    0.57251    0.35082    1.000
    Si4014   Si       0.68879    0.51542    0.26878    1.000
    N4015    N        0.69090    0.62482    0.26209    1.000
    Si4016   Si       0.64645    0.63657    0.26069    1.000
    Si4017   Si       0.66995    0.73478    0.35556    1.000
    Si4018   Si       0.66309    0.69781    0.29578    1.000
    N4019    N        0.64410    0.70337    0.33710    1.000
    N4020    N        0.68257    0.74724    0.30534    1.000
    N4021    N        0.64084    0.72015    0.26390    1.000
    N4022    N        0.63858    0.66133    0.29414    1.000
    N4023    N        0.66246    0.61132    0.47515    1.000
    Si4024   Si       0.65308    0.56957    0.44872    1.000
    N4025    N        0.65616    0.53097    0.42724    1.000
    N4026    N        0.69838    0.57015    0.44499    1.000
    N4027    N        0.66656    0.72117    0.39854    1.000
    Si4028   Si       0.67856    0.74935    0.43028    1.000
    Si4029   Si       0.66583    0.68883    0.42852    1.000
    N4030    N        0.66793    0.71834    0.46277    1.000
    Si4031   Si       0.67475    0.56153    0.58524    1.000
    N4032    N        0.66481    0.56183    0.54046    1.000
    Si4033   Si       0.68325    0.52358    0.53394    1.000
    N4034    N        0.65292    0.52624    0.61017    1.000
    N4035    N        0.64295    0.58895    0.59969    1.000
    Si4036   Si       0.65073    0.58939    0.50986    1.000
    N4037    N        0.65997    0.69987    0.57549    1.000
    N4038    N        0.64432    0.74203    0.51582    1.000
    Si4039   Si       0.65350    0.68128    0.61590    1.000
    Si4040   Si       0.68679    0.73944    0.49994    1.000
    N4041    N        0.67447    0.64495    0.62535    1.000
    N4042    N        0.66940    0.57579    0.65812    1.000
    Si4043   Si       0.64942    0.53834    0.65167    1.000
    Si4044   Si       0.64977    0.60868    0.63712    1.000
    N4045    N        0.65790    0.50727    0.68069    1.000
    N4046    N        0.63372    0.59526    0.72053    1.000
    Si4047   Si       0.65769    0.56680    0.74263    1.000
    Si4048   Si       0.65120    0.70362    0.68444    1.000
    N4049    N        0.68192    0.70885    0.71553    1.000
    N4050    N        0.64317    0.66333    0.69907    1.000
    N4051    N        0.66626    0.70855    0.64602    1.000
    Si4052   Si       0.67167    0.66701    0.73004    1.000
    Si4053   Si       0.67260    0.74226    0.74426    1.000
    N4054    N        0.67577    0.58558    0.77550    1.000
    Si4055   Si       0.65592    0.54176    0.85748    1.000
    Si4056   Si       0.68360    0.62749    0.77285    1.000
    Si4057   Si       0.63681    0.66203    0.83853    1.000
    Si4058   Si       0.65743    0.70381    0.79405    1.000
    N4059    N        0.66070    0.66477    0.77081    1.000
    N4060    N        0.67470    0.68088    0.83346    1.000
    N4061    N        0.69266    0.72713    0.77951    1.000
    Si4062   Si       0.65657    0.54348    0.96386    1.000
    N4063    N        0.65409    0.56621    0.89550    1.000
    N4064    N        0.68986    0.57113    0.95539    1.000
    N4065    N        0.66417    0.50883    0.94073    1.000
    Si4066   Si       0.69255    0.57271    0.91188    1.000
    N4067    N        0.64532    0.73299    0.90499    1.000
    N4068    N        0.65637    0.74107    0.97653    1.000
    Si4069   Si       0.66427    0.75593    0.93666    1.000
    N4070    N        0.66568    0.67345    0.99244    1.000
    N4071    N        0.68933    0.66980    0.92044    1.000
    Si4072   Si       0.65008    0.68969    0.90691    1.000
    Si4073   Si       0.63636    0.70244    0.97973    1.000
    Si4074   Si       0.64382    0.77405    0.08849    1.000
    Si4075   Si       0.66686    0.76669    0.01110    1.000
    N4076    N        0.65548    0.80953    0.11235    1.000
    N4077    N        0.65665    0.80934    0.00084    1.000
    N4078    N        0.64076    0.76347    0.04648    1.000
    N4079    N        0.68282    0.87594    0.00558    1.000
    Si4080   Si       0.69282    0.83514    0.01207    1.000
    N4081    N        0.64880    0.89313    0.07439    1.000
    Si4082   Si       0.67560    0.90156    0.04108    1.000
    N4083    N        0.66500    0.94086    0.02791    1.000
    Si4084   Si       0.66719    0.89935    0.11321    1.000
    Si4085   Si       0.63998    0.97505    0.01919    1.000
    N4086    N        0.69040    0.93584    0.11774    1.000
    N4087    N        0.68108    0.00458    0.10511    1.000
    N4088    N        0.65925    0.00903    0.03973    1.000
    Si4089   Si       0.69371    0.00176    0.06323    1.000
    Si4090   Si       0.64778    0.80834    0.15724    1.000
    N4091    N        0.68256    0.82383    0.17808    1.000
    N4092    N        0.63756    0.76558    0.16771    1.000
    N4093    N        0.68974    0.86483    0.12693    1.000
    Si4094   Si       0.66093    0.91215    0.21990    1.000
    N4095    N        0.65001    0.95473    0.23111    1.000
    Si4096   Si       0.64663    0.98576    0.20199    1.000
    Si4097   Si       0.68496    0.97397    0.13491    1.000
    N4098    N        0.64832    0.97320    0.15890    1.000
    N4099    N        0.67150    0.82761    0.31121    1.000
    Si4100   Si       0.67837    0.81076    0.35128    1.000
    N4101    N        0.65308    0.77408    0.36332    1.000
    Si4102   Si       0.65587    0.76069    0.27340    1.000
    N4103    N        0.67482    0.78868    0.24550    1.000
    Si4104   Si       0.67152    0.94965    0.26938    1.000
    Si4105   Si       0.65955    0.94981    0.34667    1.000
    N4106    N        0.68098    0.91494    0.36158    1.000
    N4107    N        0.64480    0.95229    0.30515    1.000
    N4108    N        0.68551    0.91142    0.25605    1.000
    N4109    N        0.68939    0.98066    0.34567    1.000
    N4110    N        0.67986    0.84482    0.37877    1.000
    N4111    N        0.68690    0.84435    0.45831    1.000
    Si4112   Si       0.67397    0.80730    0.47741    1.000
    N4113    N        0.66125    0.78338    0.44568    1.000
    Si4114   Si       0.64877    0.86660    0.45248    1.000
    N4115    N        0.64636    0.88440    0.49233    1.000
    Si4116   Si       0.65796    0.88374    0.38082    1.000
    N4117    N        0.65411    0.89767    0.42236    1.000
    N4118    N        0.69321    0.95217    0.43620    1.000
    Si4119   Si       0.65316    0.94051    0.42294    1.000
    Si4120   Si       0.69195    0.97417    0.47425    1.000
    N4121    N        0.68110    0.83844    0.60217    1.000
    N4122    N        0.64397    0.81785    0.50664    1.000
    Si4123   Si       0.64184    0.83145    0.58370    1.000
    Si4124   Si       0.63693    0.77621    0.60851    1.000
    N4125    N        0.67858    0.77179    0.62027    1.000
    Si4126   Si       0.67625    0.91286    0.50909    1.000
    Si4127   Si       0.67508    0.97792    0.58603    1.000
    N4128    N        0.64066    0.95768    0.57135    1.000
    N4129    N        0.66486    0.95280    0.49851    1.000
    N4130    N        0.69246    0.89859    0.54885    1.000
    N4131    N        0.67596    0.78194    0.72734    1.000
    Si4132   Si       0.66868    0.86976    0.63092    1.000
    N4133    N        0.65462    0.85547    0.66858    1.000
    Si4134   Si       0.67584    0.87437    0.70260    1.000
    N4135    N        0.67171    0.84322    0.73196    1.000
    Si4136   Si       0.63768    0.81545    0.72484    1.000
    N4137    N        0.64979    0.90674    0.71578    1.000
    N4138    N        0.69483    0.95234    0.67401    1.000
    N4139    N        0.66118    0.99622    0.62768    1.000
    Si4140   Si       0.65685    0.94449    0.69735    1.000
    N4141    N        0.65978    0.97718    0.72727    1.000
    N4142    N        0.66107    0.78338    0.81245    1.000
    Si4143   Si       0.67898    0.80810    0.84281    1.000
    N4144    N        0.66066    0.84335    0.86172    1.000
    Si4145   Si       0.67095    0.88410    0.85334    1.000
    Si4146   Si       0.67884    0.97001    0.76531    1.000
    N4147    N        0.67406    0.93361    0.78512    1.000
    Si4148   Si       0.66817    0.98625    0.83728    1.000
    N4149    N        0.66472    0.99846    0.79666    1.000
    N4150    N        0.68010    0.78922    0.88195    1.000
    Si4151   Si       0.64837    0.81851    0.89751    1.000
    N4152    N        0.64720    0.85513    0.92752    1.000
    N4153    N        0.64866    0.79541    0.93588    1.000
    Si4154   Si       0.64299    0.82868    0.96398    1.000
    N4155    N        0.66176    0.97601    0.90755    1.000
    Si4156   Si       0.66829    0.96442    0.95083    1.000
    Si4157   Si       0.65734    0.89693    0.91974    1.000
    N4158    N        0.68906    0.89803    0.89012    1.000
    N4159    N        0.67189    0.92152    0.95231    1.000
    N4160    N        0.63474    0.97716    0.97531    1.000
    N4161    N        0.72793    0.03126    0.05445    1.000
    Si4162   Si       0.74543    0.03829    0.01467    1.000
    N4163    N        0.70064    0.07942    0.10318    1.000
    N4164    N        0.72459    0.21207    0.09221    1.000
    Si4165   Si       0.73094    0.13970    0.00558    1.000
    N4166    N        0.71659    0.18032    0.00639    1.000
    N4167    N        0.74747    0.23864    0.03401    1.000
    Si4168   Si       0.74927    0.20950    0.00253    1.000
    N4169    N        0.70251    0.15230    0.11440    1.000
    Si4170   Si       0.70843    0.11224    0.13093    1.000
    Si4171   Si       0.70849    0.02119    0.18481    1.000
    N4172    N        0.74911    0.10306    0.14360    1.000
    N4173    N        0.75218    0.02543    0.19689    1.000
    N4174    N        0.71717    0.20056    0.16334    1.000
    Si4175   Si       0.72964    0.18441    0.12521    1.000
    Si4176   Si       0.73398    0.18470    0.20037    1.000
    N4177    N        0.70285    0.17699    0.23060    1.000
    N4178    N        0.75443    0.14625    0.19577    1.000
    Si4179   Si       0.69690    0.23843    0.16376    1.000
    Si4180   Si       0.70807    0.08517    0.33451    1.000
    N4181    N        0.74129    0.11474    0.26540    1.000
    Si4182   Si       0.70490    0.09265    0.25878    1.000
    N4183    N        0.74833    0.07401    0.31843    1.000
    N4184    N        0.71924    0.05281    0.25264    1.000
    N4185    N        0.71643    0.11074    0.36861    1.000
    Si4186   Si       0.71680    0.19052    0.26959    1.000
    Si4187   Si       0.74004    0.14582    0.36507    1.000
    N4188    N        0.71475    0.18134    0.36814    1.000
    N4189    N        0.75730    0.20300    0.27824    1.000
    Si4190   Si       0.69928    0.10547    0.40869    1.000
    N4191    N        0.71757    0.01446    0.39444    1.000
    Si4192   Si       0.72861    0.08331    0.47954    1.000
    Si4193   Si       0.71379    0.02951    0.43514    1.000
    N4194    N        0.71040    0.07391    0.43934    1.000
    N4195    N        0.75217    0.02769    0.45393    1.000
    N4196    N        0.70983    0.13820    0.43619    1.000
    Si4197   Si       0.70859    0.15075    0.47772    1.000
    N4198    N        0.73547    0.22527    0.47098    1.000
    Si4199   Si       0.71778    0.22109    0.38697    1.000
    N4200    N        0.72547    0.04743    0.50928    1.000
    N4201    N        0.72673    0.11753    0.61148    1.000
    Si4202   Si       0.74955    0.01510    0.49587    1.000
    N4203    N        0.70170    0.11317    0.49765    1.000
    N4204    N        0.73846    0.22726    0.54264    1.000
    Si4205   Si       0.73747    0.14506    0.57799    1.000
    Si4206   Si       0.71663    0.24445    0.57446    1.000
    N4207    N        0.73909    0.23592    0.60984    1.000
    N4208    N        0.70363    0.16885    0.56654    1.000
    Si4209   Si       0.75071    0.20670    0.50717    1.000
    N4210    N        0.74439    0.16570    0.49900    1.000
    N4211    N        0.69919    0.05677    0.62041    1.000
    Si4212   Si       0.74134    0.04178    0.62009    1.000
    Si4213   Si       0.72235    0.05680    0.68812    1.000
    N4214    N        0.74429    0.04265    0.72432    1.000
    N4215    N        0.69976    0.09150    0.70222    1.000
    N4216    N        0.69732    0.01927    0.68943    1.000
    Si4217   Si       0.71130    0.13391    0.68869    1.000
    N4218    N        0.75501    0.04816    0.66169    1.000
    Si4219   Si       0.72447    0.25450    0.64590    1.000
    N4220    N        0.75342    0.13632    0.67127    1.000
    Si4221   Si       0.71523    0.18939    0.74337    1.000
    N4222    N        0.72930    0.15154    0.72509    1.000
    N4223    N        0.73136    0.22888    0.74214    1.000
    N4224    N        0.70018    0.22487    0.66480    1.000
    Si4225   Si       0.71029    0.24290    0.70558    1.000
    Si4226   Si       0.74005    0.09027    0.81965    1.000
    N4227    N        0.72898    0.09133    0.77653    1.000
    N4228    N        0.70615    0.08889    0.84604    1.000
    Si4229   Si       0.71119    0.12502    0.75873    1.000
    N4230    N        0.70526    0.16498    0.78117    1.000
    Si4231   Si       0.72985    0.16406    0.81694    1.000
    N4232    N        0.70643    0.16059    0.85373    1.000
    N4233    N        0.74836    0.19899    0.83237    1.000
    Si4234   Si       0.73039    0.19484    0.87250    1.000
    Si4235   Si       0.71627    0.12157    0.87299    1.000
    Si4236   Si       0.71612    0.03221    0.95092    1.000
    N4237    N        0.71401    0.05410    0.98888    1.000
    N4238    N        0.69639    0.12563    0.90889    1.000
    N4239    N        0.73107    0.12842    0.96228    1.000
    N4240    N        0.73902    0.22972    0.96492    1.000
    Si4241   Si       0.75307    0.14312    0.92591    1.000
    N4242    N        0.74732    0.18473    0.91209    1.000
    N4243    N        0.70395    0.22877    0.87322    1.000
    Si4244   Si       0.71566    0.33587    0.08702    1.000
    N4245    N        0.73841    0.30397    0.06744    1.000
    N4246    N        0.73998    0.37100    0.10116    1.000
    Si4247   Si       0.72441    0.27593    0.03696    1.000
    N4248    N        0.73778    0.34965    0.00169    1.000
    Si4249   Si       0.69921    0.33336    0.01245    1.000
    N4250    N        0.71287    0.29359    0.99817    1.000
    Si4251   Si       0.71758    0.40786    0.10211    1.000
    N4252    N        0.72013    0.43031    0.06363    1.000
    N4253    N        0.74945    0.46433    0.00303    1.000
    Si4254   Si       0.74546    0.37164    0.18177    1.000
    N4255    N        0.72386    0.26791    0.17654    1.000
    Si4256   Si       0.73687    0.29211    0.21010    1.000
    N4257    N        0.73472    0.33491    0.20302    1.000
    Si4258   Si       0.69961    0.33792    0.23045    1.000
    N4259    N        0.69847    0.29505    0.23669    1.000
    N4260    N        0.70441    0.38257    0.16652    1.000
    N4261    N        0.72075    0.43667    0.13438    1.000
    N4262    N        0.75467    0.40568    0.20961    1.000
    N4263    N        0.71111    0.49948    0.15914    1.000
    N4264    N        0.69777    0.44993    0.20452    1.000
    Si4265   Si       0.71829    0.48857    0.20000    1.000
    Si4266   Si       0.75018    0.46805    0.14329    1.000
    N4267    N        0.70693    0.31998    0.33455    1.000
    Si4268   Si       0.74812    0.32297    0.34574    1.000
    N4269    N        0.71459    0.36646    0.25738    1.000
    Si4270   Si       0.70221    0.27243    0.27336    1.000
    N4271    N        0.73149    0.26693    0.30551    1.000
    N4272    N        0.70779    0.39307    0.35429    1.000
    N4273    N        0.72717    0.42184    0.28136    1.000
    N4274    N        0.70648    0.46531    0.36092    1.000
    Si4275   Si       0.74675    0.39583    0.25117    1.000
    Si4276   Si       0.74936    0.46038    0.36519    1.000
    Si4277   Si       0.75125    0.38995    0.35899    1.000
    N4278    N        0.71435    0.50869    0.30264    1.000
    Si4279   Si       0.73767    0.37360    0.47669    1.000
    N4280    N        0.73900    0.32994    0.38947    1.000
    Si4281   Si       0.72117    0.29339    0.40511    1.000
    N4282    N        0.71438    0.29716    0.49331    1.000
    N4283    N        0.71014    0.26203    0.37544    1.000
    N4284    N        0.75203    0.28120    0.43353    1.000
    Si4285   Si       0.75243    0.30373    0.47428    1.000
    Si4286   Si       0.73090    0.44706    0.43781    1.000
    N4287    N        0.72577    0.40632    0.44914    1.000
    Si4288   Si       0.71667    0.31273    0.53350    1.000
    N4289    N        0.71259    0.28902    0.56979    1.000
    Si4290   Si       0.70080    0.37141    0.57207    1.000
    N4291    N        0.75405    0.33475    0.53158    1.000
    N4292    N        0.74316    0.38077    0.57871    1.000
    N4293    N        0.71208    0.46642    0.59456    1.000
    Si4294   Si       0.74664    0.49657    0.49926    1.000
    N4295    N        0.70344    0.50258    0.50197    1.000
    Si4296   Si       0.74955    0.39841    0.61915    1.000
    N4297    N        0.73473    0.32777    0.68594    1.000
    N4298    N        0.70066    0.28869    0.63874    1.000
    Si4299   Si       0.69795    0.31025    0.67830    1.000
    N4300    N        0.74419    0.26156    0.68335    1.000
    Si4301   Si       0.70291    0.38089    0.73910    1.000
    Si4302   Si       0.70241    0.49579    0.68213    1.000
    N4303    N        0.70654    0.40644    0.63306    1.000
    Si4304   Si       0.70833    0.42301    0.67312    1.000
    N4305    N        0.72463    0.39581    0.70144    1.000
    Si4306   Si       0.74454    0.46605    0.62571    1.000
    N4307    N        0.70411    0.48291    0.72337    1.000
    N4308    N        0.72165    0.46211    0.66092    1.000
    Si4309   Si       0.72226    0.36227    0.80446    1.000
    N4310    N        0.73376    0.35912    0.76177    1.000
    N4311    N        0.72417    0.29934    0.86613    1.000
    Si4312   Si       0.74955    0.33521    0.87055    1.000
    N4313    N        0.71154    0.40057    0.82108    1.000
    Si4314   Si       0.71487    0.48970    0.80457    1.000
    Si4315   Si       0.72760    0.40946    0.86016    1.000
    N4316    N        0.72203    0.49432    0.84782    1.000
    N4317    N        0.74837    0.46754    0.78845    1.000
    N4318    N        0.69201    0.41774    0.75746    1.000
    N4319    N        0.71682    0.33626    0.93854    1.000
    Si4320   Si       0.72141    0.26490    0.89190    1.000
    Si4321   Si       0.73987    0.31764    0.97021    1.000
    N4322    N        0.73576    0.37443    0.88643    1.000
    Si4323   Si       0.72161    0.37764    0.92938    1.000
    N4324    N        0.70028    0.27481    0.92755    1.000
    Si4325   Si       0.70647    0.25846    0.96897    1.000
    Si4326   Si       0.70757    0.50750    0.94037    1.000
    Si4327   Si       0.71046    0.45500    0.98661    1.000
    N4328    N        0.69566    0.43637    0.87533    1.000
    N4329    N        0.70932    0.46260    0.94526    1.000
    Si4330   Si       0.74645    0.39174    0.99422    1.000
    N4331    N        0.70759    0.41145    0.99467    1.000
    N4332    N        0.73042    0.56589    0.08507    1.000
    N4333    N        0.72871    0.58121    0.01512    1.000
    Si4334   Si       0.72227    0.55232    0.04482    1.000
    Si4335   Si       0.72983    0.62494    0.01723    1.000
    N4336    N        0.74912    0.51844    0.04225    1.000
    N4337    N        0.74330    0.62974    0.10212    1.000
    Si4338   Si       0.70191    0.63709    0.08853    1.000
    Si4339   Si       0.72133    0.72289    0.01894    1.000
    N4340    N        0.72922    0.73837    0.09465    1.000
    N4341    N        0.69961    0.64014    0.04502    1.000
    Si4342   Si       0.69235    0.71436    0.08680    1.000
    N4343    N        0.69169    0.67485    0.10461    1.000
    Si4344   Si       0.74219    0.53927    0.14507    1.000
    Si4345   Si       0.71940    0.55556    0.21790    1.000
    N4346    N        0.70471    0.51654    0.22917    1.000
    N4347    N        0.70141    0.56264    0.14426    1.000
    N4348    N        0.74868    0.54229    0.18771    1.000
    Si4349   Si       0.69770    0.67182    0.14679    1.000
    Si4350   Si       0.74145    0.75614    0.18463    1.000
    N4351    N        0.70524    0.75459    0.15928    1.000
    Si4352   Si       0.74891    0.68360    0.19349    1.000
    N4353    N        0.73950    0.68084    0.15168    1.000
    N4354    N        0.72131    0.66397    0.21927    1.000
    N4355    N        0.71291    0.58655    0.32060    1.000
    Si4356   Si       0.70541    0.58634    0.27947    1.000
    Si4357   Si       0.74360    0.60299    0.35312    1.000
    N4358    N        0.73752    0.57096    0.25435    1.000
    N4359    N        0.71092    0.71704    0.35613    1.000
    Si4360   Si       0.72127    0.65652    0.26303    1.000
    Si4361   Si       0.73115    0.69928    0.32071    1.000
    N4362    N        0.70445    0.68389    0.29261    1.000
    N4363    N        0.69689    0.53649    0.36779    1.000
    Si4364   Si       0.70442    0.60408    0.47208    1.000
    N4365    N        0.73621    0.52541    0.41781    1.000
    N4366    N        0.70562    0.60186    0.38024    1.000
    N4367    N        0.73202    0.62874    0.45115    1.000
    Si4368   Si       0.69545    0.53842    0.41309    1.000
    Si4369   Si       0.71443    0.70803    0.39695    1.000
    N4370    N        0.72000    0.74438    0.42460    1.000
    N4371    N        0.70066    0.67024    0.41365    1.000
    Si4372   Si       0.72218    0.62999    0.40919    1.000
    N4373    N        0.70955    0.58924    0.59019    1.000
    N4374    N        0.70495    0.52433    0.57278    1.000
    N4375    N        0.71633    0.60476    0.51327    1.000
    Si4376   Si       0.74633    0.51307    0.57262    1.000
    Si4377   Si       0.70516    0.63078    0.59777    1.000
    Si4378   Si       0.75311    0.58150    0.58309    1.000
    Si4379   Si       0.73689    0.63483    0.53393    1.000
    N4380    N        0.72025    0.71943    0.60094    1.000
    N4381    N        0.71224    0.71671    0.52705    1.000
    N4382    N        0.70784    0.65504    0.56075    1.000
    Si4383   Si       0.70111    0.69935    0.56498    1.000
    N4384    N        0.74493    0.63821    0.61612    1.000
    N4385    N        0.73219    0.60321    0.67933    1.000
    N4386    N        0.72206    0.53404    0.66783    1.000
    Si4387   Si       0.70394    0.57032    0.68328    1.000
    Si4388   Si       0.71317    0.52087    0.74105    1.000
    N4389    N        0.69272    0.55206    0.72155    1.000
    N4390    N        0.72310    0.74355    0.66974    1.000
    Si4391   Si       0.73824    0.63516    0.71064    1.000
    N4392    N        0.73678    0.67482    0.68741    1.000
    Si4393   Si       0.72351    0.71411    0.70266    1.000
    N4394    N        0.74714    0.72878    0.73526    1.000
    N4395    N        0.69976    0.63370    0.73246    1.000
    Si4396   Si       0.69747    0.73494    0.63426    1.000
    Si4397   Si       0.70563    0.56428    0.80123    1.000
    N4398    N        0.70370    0.52444    0.78300    1.000
    Si4399   Si       0.72558    0.53255    0.86526    1.000
    N4400    N        0.74829    0.57704    0.80104    1.000
    N4401    N        0.69449    0.55315    0.84289    1.000
    N4402    N        0.71469    0.63234    0.80346    1.000
    Si4403   Si       0.71496    0.66947    0.82641    1.000
    Si4404   Si       0.73673    0.72594    0.77766    1.000
    N4405    N        0.74278    0.68853    0.79794    1.000
    N4406    N        0.73300    0.67690    0.86537    1.000
    N4407    N        0.73548    0.75421    0.86466    1.000
    N4408    N        0.71117    0.60913    0.89729    1.000
    N4409    N        0.73185    0.52143    0.97333    1.000
    N4410    N        0.71669    0.53549    0.90636    1.000
    Si4411   Si       0.72790    0.56515    0.97261    1.000
    Si4412   Si       0.74226    0.73153    0.95055    1.000
    N4413    N        0.72661    0.63549    0.97469    1.000
    N4414    N        0.72303    0.70389    0.97727    1.000
    N4415    N        0.70818    0.75458    0.93460    1.000
    Si4416   Si       0.69906    0.66828    0.96528    1.000
    Si4417   Si       0.72271    0.65161    0.89883    1.000
    Si4418   Si       0.73475    0.86464    0.06033    1.000
    N4419    N        0.70164    0.83735    0.05639    1.000
    N4420    N        0.70857    0.76380    0.01811    1.000
    Si4421   Si       0.74167    0.78449    0.00209    1.000
    N4422    N        0.72940    0.80848    0.11180    1.000
    Si4423   Si       0.69236    0.83074    0.09844    1.000
    N4424    N        0.71274    0.90365    0.06465    1.000
    N4425    N        0.72327    0.96851    0.06608    1.000
    Si4426   Si       0.72586    0.93423    0.09035    1.000
    N4427    N        0.75253    0.99708    0.00412    1.000
    Si4428   Si       0.69903    0.80985    0.21480    1.000
    Si4429   Si       0.73099    0.76636    0.12641    1.000
    N4430    N        0.73561    0.78623    0.21527    1.000
    Si4431   Si       0.70344    0.86203    0.16736    1.000
    N4432    N        0.74699    0.85881    0.16439    1.000
    N4433    N        0.70618    0.84344    0.24278    1.000
    N4434    N        0.69655    0.89417    0.19731    1.000
    Si4435   Si       0.71550    0.88563    0.23825    1.000
    N4436    N        0.71785    0.98392    0.16283    1.000
    N4437    N        0.72009    0.79018    0.35125    1.000
    N4438    N        0.72938    0.79531    0.28287    1.000
    Si4439   Si       0.72209    0.76561    0.31380    1.000
    Si4440   Si       0.69264    0.81778    0.27599    1.000
    N4441    N        0.73761    0.87647    0.35328    1.000
    Si4442   Si       0.72385    0.91789    0.35423    1.000
    N4443    N        0.73207    0.93389    0.31639    1.000
    Si4444   Si       0.72089    0.97566    0.31405    1.000
    N4445    N        0.70195    0.97970    0.27532    1.000
    N4446    N        0.74872    0.00664    0.33346    1.000
    N4447    N        0.74920    0.83025    0.40131    1.000
    Si4448   Si       0.71979    0.85945    0.38907    1.000
    Si4449   Si       0.72040    0.87231    0.45932    1.000
    N4450    N        0.70197    0.78101    0.49779    1.000
    N4451    N        0.73945    0.94851    0.38105    1.000
    N4452    N        0.72033    0.88947    0.41965    1.000
    Si4453   Si       0.75002    0.99183    0.37534    1.000
    N4454    N        0.71434    0.90355    0.48687    1.000
    Si4455   Si       0.72952    0.93395    0.42126    1.000
    Si4456   Si       0.74720    0.93614    0.48712    1.000
    Si4457   Si       0.72396    0.80397    0.52669    1.000
    N4458    N        0.71725    0.79287    0.56592    1.000
    N4459    N        0.73438    0.84853    0.52202    1.000
    Si4460   Si       0.70557    0.80295    0.60554    1.000
    Si4461   Si       0.73090    0.88974    0.53317    1.000
    Si4462   Si       0.74802    0.96461    0.60732    1.000
    N4463    N        0.70901    0.95215    0.59083    1.000
    Si4464   Si       0.70959    0.90941    0.58668    1.000
    N4465    N        0.75278    0.89671    0.57976    1.000
    N4466    N        0.73106    0.97514    0.49339    1.000
    Si4467   Si       0.70519    0.81434    0.72818    1.000
    N4468    N        0.74204    0.79954    0.62945    1.000
    Si4469   Si       0.74188    0.78430    0.67057    1.000
    N4470    N        0.73052    0.82085    0.69214    1.000
    Si4471   Si       0.75143    0.85873    0.69082    1.000
    N4472    N        0.72932    0.00017    0.62741    1.000
    Si4473   Si       0.72324    0.91909    0.66007    1.000
    Si4474   Si       0.69760    0.99120    0.65445    1.000
    Si4475   Si       0.72763    0.00241    0.71977    1.000
    N4476    N        0.71670    0.88754    0.69182    1.000
    N4477    N        0.69943    0.89931    0.62938    1.000
    Si4478   Si       0.73502    0.85598    0.82914    1.000
    N4479    N        0.71704    0.81598    0.82927    1.000
    N4480    N        0.73537    0.81929    0.75822    1.000
    Si4481   Si       0.74377    0.78072    0.82970    1.000
    N4482    N        0.74904    0.85900    0.87111    1.000
    N4483    N        0.70338    0.88433    0.82371    1.000
    Si4484   Si       0.70876    0.92539    0.81133    1.000
    Si4485   Si       0.74125    0.97789    0.85312    1.000
    N4486    N        0.72002    0.98236    0.75620    1.000
    N4487    N        0.70370    0.95965    0.84023    1.000
    N4488    N        0.74918    0.93620    0.80044    1.000
    N4489    N        0.72240    0.81760    0.98423    1.000
    Si4490   Si       0.71906    0.77665    0.89897    1.000
    N4491    N        0.72174    0.87147    0.94296    1.000
    Si4492   Si       0.74224    0.83225    0.94873    1.000
    N4493    N        0.74560    0.80802    0.91247    1.000
    Si4494   Si       0.70184    0.89933    0.97375    1.000
    Si4495   Si       0.72947    0.88397    0.90156    1.000
    Si4496   Si       0.73654    0.96991    0.97284    1.000
    N4497    N        0.72860    0.99945    0.88843    1.000
    N4498    N        0.70289    0.98902    0.95525    1.000
    N4499    N        0.73251    0.92700    0.98252    1.000
    Si4500   Si       0.78819    0.09381    0.04902    1.000
    N4501    N        0.77942    0.07002    0.08596    1.000
    N4502    N        0.78036    0.06419    0.01641    1.000
    Si4503   Si       0.76066    0.03036    0.08275    1.000
    N4504    N        0.76633    0.12767    0.02823    1.000
    N4505    N        0.80645    0.13388    0.07712    1.000
    Si4506   Si       0.80083    0.17165    0.09973    1.000
    N4507    N        0.78091    0.18916    0.06411    1.000
    Si4508   Si       0.79481    0.16150    0.03373    1.000
    Si4509   Si       0.76063    0.22543    0.07396    1.000
    N4510    N        0.78625    0.25403    0.09147    1.000
    Si4511   Si       0.81126    0.08696    0.18850    1.000
    Si4512   Si       0.77002    0.06943    0.13005    1.000
    Si4513   Si       0.76633    0.12499    0.23075    1.000
    N4514    N        0.77991    0.08300    0.21758    1.000
    Si4515   Si       0.75829    0.04887    0.23542    1.000
    N4516    N        0.75976    0.02396    0.12639    1.000
    N4517    N        0.80686    0.06310    0.15248    1.000
    Si4518   Si       0.77480    0.13551    0.15822    1.000
    N4519    N        0.76849    0.20521    0.21510    1.000
    N4520    N        0.79782    0.14929    0.24672    1.000
    N4521    N        0.77129    0.16641    0.12879    1.000
    Si4522   Si       0.80441    0.18345    0.22086    1.000
    Si4523   Si       0.76987    0.03830    0.31360    1.000
    N4524    N        0.78415    0.03374    0.26986    1.000
    Si4525   Si       0.76559    0.11109    0.30245    1.000
    N4526    N        0.80899    0.10639    0.30139    1.000
    N4527    N        0.80795    0.04234    0.33146    1.000
    Si4528   Si       0.77508    0.18476    0.31366    1.000
    N4529    N        0.77894    0.21879    0.33984    1.000
    Si4530   Si       0.76990    0.25692    0.31991    1.000
    Si4531   Si       0.77732    0.23274    0.24921    1.000
    N4532    N        0.75644    0.14765    0.32518    1.000
    N4533    N        0.80684    0.06646    0.43279    1.000
    Si4534   Si       0.79093    0.02622    0.43391    1.000
    N4535    N        0.76866    0.10370    0.48166    1.000
    Si4536   Si       0.80508    0.10147    0.46103    1.000
    N4537    N        0.78847    0.00827    0.39261    1.000
    Si4538   Si       0.76467    0.24060    0.44178    1.000
    N4539    N        0.80573    0.24078    0.45379    1.000
    Si4540   Si       0.79238    0.21870    0.38061    1.000
    N4541    N        0.77610    0.14270    0.38926    1.000
    N4542    N        0.75654    0.21775    0.40566    1.000
    Si4543   Si       0.80895    0.25171    0.49732    1.000
    Si4544   Si       0.78027    0.08631    0.57484    1.000
    N4545    N        0.79389    0.10186    0.61540    1.000
    N4546    N        0.76174    0.04617    0.58287    1.000
    N4547    N        0.75695    0.11522    0.55299    1.000
    N4548    N        0.78837    0.01606    0.52098    1.000
    Si4549   Si       0.76720    0.13232    0.51464    1.000
    Si4550   Si       0.78834    0.01400    0.56619    1.000
    Si4551   Si       0.77799    0.23498    0.55703    1.000
    N4552    N        0.76461    0.16570    0.60603    1.000
    N4553    N        0.79381    0.21477    0.51898    1.000
    N4554    N        0.80144    0.22224    0.59148    1.000
    N4555    N        0.80789    0.14544    0.52444    1.000
    Si4556   Si       0.77082    0.20663    0.61941    1.000
    Si4557   Si       0.78160    0.02002    0.68263    1.000
    N4558    N        0.77841    0.10472    0.73064    1.000
    N4559    N        0.81167    0.03279    0.71277    1.000
    Si4560   Si       0.76504    0.13023    0.63050    1.000
    Si4561   Si       0.80866    0.21010    0.69656    1.000
    N4562    N        0.80169    0.17304    0.71913    1.000
    N4563    N        0.79940    0.24047    0.72570    1.000
    Si4564   Si       0.77060    0.14356    0.71153    1.000
    N4565    N        0.79323    0.20823    0.65549    1.000
    Si4566   Si       0.76614    0.25439    0.74898    1.000
    Si4567   Si       0.78477    0.03665    0.81801    1.000
    N4568    N        0.78595    0.05205    0.77813    1.000
    N4569    N        0.76994    0.07014    0.84438    1.000
    Si4570   Si       0.80850    0.02265    0.75388    1.000
    Si4571   Si       0.76049    0.07289    0.74961    1.000
    Si4572   Si       0.78775    0.09640    0.87208    1.000
    N4573    N        0.75741    0.13035    0.81593    1.000
    Si4574   Si       0.80339    0.13839    0.81181    1.000
    N4575    N        0.79828    0.17920    0.78969    1.000
    Si4576   Si       0.78373    0.21520    0.81245    1.000
    N4577    N        0.77597    0.25363    0.79193    1.000
    N4578    N        0.81442    0.22057    0.84285    1.000
    Si4579   Si       0.79761    0.04605    0.93334    1.000
    N4580    N        0.80805    0.01796    0.90301    1.000
    N4581    N        0.75667    0.12203    0.88836    1.000
    N4582    N        0.81081    0.07963    0.90744    1.000
    N4583    N        0.75502    0.03551    0.93524    1.000
    N4584    N        0.80371    0.21558    0.94224    1.000
    N4585    N        0.79508    0.14330    0.93898    1.000
    Si4586   Si       0.80917    0.17803    0.96261    1.000
    Si4587   Si       0.76376    0.22192    0.93099    1.000
    N4588    N        0.76109    0.25564    0.90276    1.000
    N4589    N        0.78350    0.18524    0.99746    1.000
    Si4590   Si       0.78128    0.29439    0.07493    1.000
    N4591    N        0.79348    0.29302    0.03313    1.000
    N4592    N        0.79876    0.32223    0.10510    1.000
    Si4593   Si       0.78093    0.36132    0.11320    1.000
    N4594    N        0.77312    0.40148    0.02693    1.000
    N4595    N        0.78488    0.46386    0.06201    1.000
    N4596    N        0.80363    0.39375    0.09367    1.000
    Si4597   Si       0.75486    0.44173    0.03954    1.000
    Si4598   Si       0.77337    0.50348    0.07798    1.000
    Si4599   Si       0.80737    0.39063    0.04873    1.000
    Si4600   Si       0.76105    0.50479    0.00275    1.000
    N4601    N        0.75756    0.50273    0.11881    1.000
    N4602    N        0.78227    0.36516    0.15770    1.000
    N4603    N        0.76705    0.27233    0.23454    1.000
    N4604    N        0.78610    0.43672    0.14945    1.000
    Si4605   Si       0.77898    0.43963    0.19293    1.000
    N4606    N        0.76019    0.47856    0.18748    1.000
    N4607    N        0.80469    0.44894    0.22665    1.000
    N4608    N        0.77741    0.29270    0.34370    1.000
    Si4609   Si       0.79075    0.36195    0.29826    1.000
    N4610    N        0.77598    0.33031    0.27442    1.000
    Si4611   Si       0.79434    0.29470    0.26189    1.000
    N4612    N        0.76656    0.35891    0.33238    1.000
    Si4613   Si       0.81202    0.29242    0.36817    1.000
    N4614    N        0.79658    0.25970    0.28608    1.000
    Si4615   Si       0.76688    0.43118    0.29847    1.000
    N4616    N        0.78561    0.39942    0.27528    1.000
    N4617    N        0.77770    0.47305    0.29035    1.000
    Si4618   Si       0.80283    0.48087    0.25474    1.000
    N4619    N        0.76492    0.42759    0.34129    1.000
    Si4620   Si       0.75879    0.50544    0.31190    1.000
    N4621    N        0.76203    0.49907    0.35387    1.000
    N4622    N        0.76128    0.34277    0.45758    1.000
    N4623    N        0.80502    0.32208    0.39975    1.000
    Si4624   Si       0.77087    0.34304    0.41402    1.000
    Si4625   Si       0.77749    0.43110    0.48703    1.000
    Si4626   Si       0.79405    0.42047    0.41115    1.000
    N4627    N        0.75895    0.44910    0.40517    1.000
    N4628    N        0.79964    0.41318    0.45306    1.000
    N4629    N        0.77526    0.38543    0.39613    1.000
    N4630    N        0.75158    0.46332    0.47368    1.000
    Si4631   Si       0.78953    0.30929    0.53588    1.000
    N4632    N        0.79183    0.27683    0.56248    1.000
    N4633    N        0.81000    0.34442    0.55121    1.000
    Si4634   Si       0.77491    0.37424    0.54644    1.000
    N4635    N        0.78706    0.28809    0.49722    1.000
    N4636    N        0.75763    0.50519    0.61535    1.000
    Si4637   Si       0.80846    0.43529    0.59652    1.000
    Si4638   Si       0.80427    0.47981    0.53896    1.000
    N4639    N        0.80243    0.40926    0.56281    1.000
    N4640    N        0.76139    0.48710    0.53958    1.000
    N4641    N        0.76341    0.39652    0.50879    1.000
    N4642    N        0.77253    0.43338    0.61844    1.000
    N4643    N        0.76603    0.29739    0.73828    1.000
    N4644    N        0.78514    0.36310    0.72008    1.000
    N4645    N        0.80147    0.31554    0.67366    1.000
    Si4646   Si       0.76695    0.29797    0.69376    1.000
    N4647    N        0.76938    0.37570    0.65147    1.000
    Si4648   Si       0.75266    0.36640    0.69035    1.000
    Si4649   Si       0.80799    0.35922    0.65895    1.000
    N4650    N        0.80861    0.49280    0.73586    1.000
    Si4651   Si       0.79313    0.36474    0.81484    1.000
    N4652    N        0.80153    0.33301    0.78678    1.000
    Si4653   Si       0.80303    0.28699    0.79809    1.000
    Si4654   Si       0.77047    0.33860    0.75332    1.000
    N4655    N        0.75524    0.34833    0.82980    1.000
    Si4656   Si       0.77196    0.43959    0.81134    1.000
    Si4657   Si       0.78133    0.49186    0.77118    1.000
    N4658    N        0.78579    0.40173    0.79432    1.000
    N4659    N        0.76730    0.42733    0.85424    1.000
    N4660    N        0.79753    0.48479    0.86688    1.000
    N4661    N        0.78537    0.32227    0.89025    1.000
    Si4662   Si       0.78885    0.28793    0.91614    1.000
    N4663    N        0.77507    0.29975    0.95413    1.000
    N4664    N        0.75652    0.39435    0.95081    1.000
    Si4665   Si       0.79711    0.40014    0.93637    1.000
    N4666    N        0.79924    0.44007    0.92016    1.000
    Si4667   Si       0.79774    0.44483    0.87690    1.000
    N4668    N        0.79756    0.59206    0.07540    1.000
    Si4669   Si       0.76251    0.59240    0.10168    1.000
    Si4670   Si       0.80401    0.61968    0.04285    1.000
    N4671    N        0.80892    0.52313    0.08479    1.000
    N4672    N        0.76907    0.64135    0.02814    1.000
    N4673    N        0.77897    0.68880    0.08544    1.000
    Si4674   Si       0.76754    0.72953    0.07855    1.000
    N4675    N        0.76197    0.72230    0.03503    1.000
    Si4676   Si       0.78499    0.68136    0.03709    1.000
    Si4677   Si       0.79221    0.73551    0.00284    1.000
    Si4678   Si       0.76288    0.66441    0.11949    1.000
    N4679    N        0.80040    0.69232    0.99799    1.000
    N4680    N        0.80392    0.75750    0.07860    1.000
    Si4681   Si       0.81023    0.56843    0.15642    1.000
    N4682    N        0.77393    0.56968    0.13600    1.000
    Si4683   Si       0.78205    0.51511    0.19399    1.000
    N4684    N        0.78695    0.51639    0.23725    1.000
    N4685    N        0.78508    0.65828    0.19900    1.000
    Si4686   Si       0.79170    0.65814    0.24300    1.000
    N4687    N        0.76285    0.72393    0.20236    1.000
    Si4688   Si       0.80128    0.73048    0.22264    1.000
    N4689    N        0.80476    0.65339    0.13116    1.000
    N4690    N        0.77891    0.60875    0.32624    1.000
    N4691    N        0.77557    0.54389    0.30027    1.000
    Si4692   Si       0.78937    0.56739    0.33180    1.000
    Si4693   Si       0.77871    0.55509    0.25896    1.000
    N4694    N        0.76441    0.56601    0.36845    1.000
    Si4695   Si       0.78234    0.64724    0.30887    1.000
    Si4696   Si       0.78956    0.73239    0.28620    1.000
    N4697    N        0.76212    0.64708    0.27106    1.000
    N4698    N        0.79523    0.70132    0.25517    1.000
    N4699    N        0.76132    0.67260    0.33694    1.000
    N4700    N        0.75154    0.73443    0.30705    1.000
    Si4701   Si       0.76514    0.52722    0.38482    1.000
    Si4702   Si       0.79241    0.61583    0.41450    1.000
    N4703    N        0.78600    0.58493    0.44473    1.000
    N4704    N        0.79586    0.52707    0.41370    1.000
    Si4705   Si       0.76591    0.54533    0.44375    1.000
    N4706    N        0.76461    0.53185    0.48347    1.000
    N4707    N        0.76107    0.63072    0.38954    1.000
    N4708    N        0.79249    0.75019    0.44831    1.000
    Si4709   Si       0.76376    0.65116    0.46797    1.000
    Si4710   Si       0.76258    0.74097    0.41846    1.000
    N4711    N        0.75810    0.70112    0.40224    1.000
    Si4712   Si       0.77494    0.67099    0.37741    1.000
    N4713    N        0.79903    0.64894    0.44351    1.000
    Si4714   Si       0.78601    0.54886    0.51772    1.000
    N4715    N        0.76766    0.61908    0.56102    1.000
    N4716    N        0.80183    0.58813    0.50976    1.000
    N4717    N        0.76371    0.54933    0.55662    1.000
    Si4718   Si       0.81095    0.61018    0.54841    1.000
    Si4719   Si       0.75372    0.70396    0.52386    1.000
    Si4720   Si       0.77249    0.65586    0.58922    1.000
    N4721    N        0.78664    0.73127    0.51529    1.000
    N4722    N        0.76313    0.69052    0.56433    1.000
    Si4723   Si       0.76378    0.72023    0.59734    1.000
    N4724    N        0.75207    0.66520    0.50577    1.000
    N4725    N        0.78014    0.75688    0.58428    1.000
    Si4726   Si       0.80914    0.60790    0.73881    1.000
    Si4727   Si       0.75763    0.61149    0.64652    1.000
    N4728    N        0.77040    0.57318    0.62242    1.000
    Si4729   Si       0.76094    0.53525    0.64673    1.000
    Si4730   Si       0.79342    0.53123    0.72259    1.000
    N4731    N        0.78922    0.53265    0.67906    1.000
    N4732    N        0.76727    0.62249    0.74432    1.000
    N4733    N        0.75682    0.52153    0.74451    1.000
    N4734    N        0.78255    0.69131    0.62399    1.000
    N4735    N        0.78710    0.63600    0.66401    1.000
    N4736    N        0.79546    0.70549    0.69224    1.000
    Si4737   Si       0.77396    0.67803    0.66498    1.000
    Si4738   Si       0.78516    0.74028    0.71651    1.000
    Si4739   Si       0.78112    0.55714    0.82166    1.000
    N4740    N        0.76580    0.54550    0.86055    1.000
    N4741    N        0.79985    0.52164    0.80206    1.000
    Si4742   Si       0.75746    0.61803    0.79138    1.000
    N4743    N        0.80751    0.70484    0.78623    1.000
    N4744    N        0.78682    0.63992    0.81571    1.000
    Si4745   Si       0.78259    0.68133    0.81312    1.000
    N4746    N        0.78884    0.71180    0.84593    1.000
    Si4747   Si       0.79961    0.74004    0.81107    1.000
    N4748    N        0.75973    0.75556    0.79965    1.000
    N4749    N        0.79504    0.51229    0.92649    1.000
    Si4750   Si       0.79653    0.54799    0.95512    1.000
    Si4751   Si       0.76452    0.62231    0.95584    1.000
    N4752    N        0.76376    0.58009    0.95623    1.000
    Si4753   Si       0.79513    0.52508    0.88638    1.000
    N4754    N        0.79989    0.52353    0.99045    1.000
    N4755    N        0.76143    0.71898    0.91429    1.000
    N4756    N        0.76114    0.64764    0.91884    1.000
    Si4757   Si       0.75502    0.71502    0.87221    1.000
    N4758    N        0.76443    0.75608    0.97660    1.000
    N4759    N        0.80608    0.63495    0.96102    1.000
    Si4760   Si       0.80378    0.65528    0.91868    1.000
    N4761    N        0.77507    0.80133    0.02576    1.000
    Si4762   Si       0.78464    0.84030    0.00704    1.000
    N4763    N        0.76303    0.86251    0.09330    1.000
    N4764    N        0.75591    0.87066    0.02146    1.000
    Si4765   Si       0.80986    0.78662    0.04653    1.000
    Si4766   Si       0.78964    0.89611    0.09935    1.000
    N4767    N        0.77185    0.93647    0.03568    1.000
    N4768    N        0.76431    0.93262    0.10887    1.000
    Si4769   Si       0.76469    0.90908    0.00452    1.000
    N4770    N        0.78685    0.99983    0.06412    1.000
    Si4771   Si       0.75840    0.97559    0.04109    1.000
    N4772    N        0.76731    0.76990    0.15180    1.000
    N4773    N        0.79812    0.82916    0.14487    1.000
    Si4774   Si       0.79014    0.86372    0.16989    1.000
    Si4775   Si       0.80567    0.78904    0.15721    1.000
    Si4776   Si       0.75839    0.83725    0.12765    1.000
    N4777    N        0.80626    0.87670    0.20780    1.000
    N4778    N        0.78640    0.82448    0.25038    1.000
    Si4779   Si       0.79088    0.86658    0.24805    1.000
    Si4780   Si       0.76043    0.99848    0.16246    1.000
    Si4781   Si       0.79892    0.94314    0.13594    1.000
    N4782    N        0.79402    0.97149    0.16759    1.000
    N4783    N        0.80153    0.89701    0.14197    1.000
    Si4784   Si       0.78065    0.86801    0.34995    1.000
    N4785    N        0.78816    0.82216    0.34487    1.000
    N4786    N        0.79092    0.76195    0.25459    1.000
    Si4787   Si       0.75761    0.79274    0.25208    1.000
    Si4788   Si       0.75996    0.80193    0.37123    1.000
    N4789    N        0.79029    0.89202    0.31516    1.000
    N4790    N        0.78355    0.95416    0.28106    1.000
    Si4791   Si       0.76257    0.91750    0.29018    1.000
    N4792    N        0.75651    0.89175    0.25534    1.000
    N4793    N        0.76157    0.85569    0.46256    1.000
    N4794    N        0.77909    0.76813    0.38859    1.000
    Si4795   Si       0.78244    0.85327    0.42377    1.000
    N4796    N        0.79745    0.87630    0.38693    1.000
    N4797    N        0.81010    0.81610    0.42549    1.000
    N4798    N        0.76532    0.93631    0.44797    1.000
    N4799    N        0.81021    0.99025    0.45917    1.000
    Si4800   Si       0.81029    0.94682    0.45144    1.000
    N4801    N        0.78590    0.83503    0.58674    1.000
    N4802    N        0.76741    0.79703    0.51679    1.000
    Si4803   Si       0.77651    0.87149    0.60660    1.000
    Si4804   Si       0.78844    0.76766    0.53920    1.000
    Si4805   Si       0.77827    0.79718    0.60496    1.000
    N4806    N        0.80720    0.85117    0.51640    1.000
    Si4807   Si       0.77141    0.83667    0.49936    1.000
    Si4808   Si       0.78117    0.92918    0.56157    1.000
    N4809    N        0.77587    0.97288    0.57528    1.000
    N4810    N        0.76040    0.92155    0.52470    1.000
    N4811    N        0.81309    0.89633    0.61346    1.000
    N4812    N        0.78088    0.77461    0.68840    1.000
    N4813    N        0.77634    0.86654    0.72720    1.000
    N4814    N        0.77559    0.86703    0.65410    1.000
    Si4815   Si       0.81185    0.89079    0.65654    1.000
    Si4816   Si       0.78344    0.95627    0.67126    1.000
    N4817    N        0.75999    0.98396    0.69718    1.000
    N4818    N        0.80575    0.99274    0.65483    1.000
    Si4819   Si       0.80854    0.89726    0.72744    1.000
    N4820    N        0.80203    0.91878    0.68959    1.000
    N4821    N        0.75730    0.93949    0.64289    1.000
    N4822    N        0.77810    0.80671    0.84243    1.000
    Si4823   Si       0.76928    0.84464    0.76423    1.000
    N4824    N        0.76441    0.86664    0.80061    1.000
    N4825    N        0.80472    0.81670    0.76745    1.000
    Si4826   Si       0.80789    0.81298    0.81218    1.000
    N4827    N        0.80314    0.90839    0.83923    1.000
    Si4828   Si       0.78185    0.90717    0.80148    1.000
    N4829    N        0.79237    0.98518    0.76857    1.000
    N4830    N        0.80851    0.91613    0.76650    1.000
    N4831    N        0.78031    0.96806    0.86908    1.000
    N4832    N        0.75379    0.00418    0.82021    1.000
    Si4833   Si       0.75209    0.97752    0.78461    1.000
    Si4834   Si       0.77240    0.82314    0.88194    1.000
    N4835    N        0.78281    0.83683    0.96297    1.000
    N4836    N        0.81074    0.83201    0.89945    1.000
    N4837    N        0.79806    0.91246    0.97580    1.000
    Si4838   Si       0.76575    0.99770    0.91041    1.000
    N4839    N        0.76227    0.90985    0.90550    1.000
    Si4840   Si       0.79153    0.92610    0.87748    1.000
    Si4841   Si       0.78426    0.92743    0.93823    1.000
    N4842    N        0.76726    0.96764    0.94085    1.000
    N4843    N        0.83231    0.08723    0.04079    1.000
    Si4844   Si       0.85535    0.05719    0.06710    1.000
    N4845    N        0.84300    0.02126    0.09332    1.000
    N4846    N        0.84304    0.02734    0.03017    1.000
    N4847    N        0.85876    0.08158    0.10454    1.000
    Si4848   Si       0.82375    0.05817    0.00435    1.000
    Si4849   Si       0.84449    0.12494    0.05683    1.000
    N4850    N        0.83778    0.15519    0.02811    1.000
    Si4851   Si       0.82519    0.24110    0.09825    1.000
    N4852    N        0.83196    0.19971    0.11019    1.000
    N4853    N        0.84774    0.24523    0.06264    1.000
    Si4854   Si       0.86981    0.15768    0.00051    1.000
    Si4855   Si       0.83981    0.05019    0.12786    1.000
    Si4856   Si       0.85175    0.02978    0.19671    1.000
    N4857    N        0.84904    0.07167    0.20664    1.000
    N4858    N        0.85797    0.02058    0.15343    1.000
    N4859    N        0.81655    0.12762    0.17200    1.000
    Si4860   Si       0.86873    0.08509    0.24535    1.000
    Si4861   Si       0.87298    0.25634    0.15632    1.000
    N4862    N        0.82026    0.21875    0.24583    1.000
    N4863    N        0.84373    0.18322    0.19944    1.000
    Si4864   Si       0.85931    0.21799    0.22474    1.000
    N4865    N        0.86925    0.15142    0.13350    1.000
    N4866    N        0.86162    0.25375    0.19720    1.000
    Si4867   Si       0.85421    0.15046    0.17406    1.000
    N4868    N        0.84779    0.05840    0.27316    1.000
    Si4869   Si       0.83450    0.07323    0.31166    1.000
    Si4870   Si       0.82550    0.02330    0.26189    1.000
    Si4871   Si       0.81981    0.01347    0.36297    1.000
    N4872    N        0.86057    0.12625    0.25851    1.000
    N4873    N        0.87096    0.08290    0.33298    1.000
    Si4874   Si       0.82576    0.14056    0.27979    1.000
    N4875    N        0.85061    0.23005    0.31819    1.000
    Si4876   Si       0.84303    0.19103    0.33490    1.000
    Si4877   Si       0.83512    0.23976    0.28017    1.000
    N4878    N        0.81675    0.17402    0.30617    1.000
    N4879    N        0.84252    0.10461    0.48436    1.000
    N4880    N        0.85811    0.03505    0.48369    1.000
    N4881    N        0.85039    0.03664    0.38755    1.000
    N4882    N        0.84109    0.11058    0.38695    1.000
    Si4883   Si       0.84328    0.07433    0.41058    1.000
    Si4884   Si       0.85538    0.14550    0.46077    1.000
    N4885    N        0.85050    0.18277    0.48639    1.000
    Si4886   Si       0.81746    0.14524    0.39724    1.000
    N4887    N        0.82629    0.18729    0.38075    1.000
    Si4888   Si       0.86658    0.22113    0.47136    1.000
    N4889    N        0.81208    0.25503    0.38989    1.000
    Si4890   Si       0.86313    0.20071    0.40052    1.000
    N4891    N        0.86484    0.23521    0.42809    1.000
    N4892    N        0.81702    0.13850    0.44078    1.000
    Si4893   Si       0.84917    0.05738    0.57416    1.000
    Si4894   Si       0.83532    0.11231    0.52640    1.000
    N4895    N        0.82455    0.02520    0.59231    1.000
    N4896    N        0.86344    0.08914    0.60202    1.000
    N4897    N        0.81847    0.07923    0.55152    1.000
    Si4898   Si       0.82562    0.00812    0.49479    1.000
    N4899    N        0.86181    0.18907    0.54739    1.000
    Si4900   Si       0.82638    0.18486    0.52161    1.000
    N4901    N        0.86076    0.25340    0.56850    1.000
    N4902    N        0.85166    0.25129    0.49940    1.000
    N4903    N        0.85913    0.19734    0.62077    1.000
    Si4904   Si       0.83706    0.01771    0.63563    1.000
    N4905    N        0.83447    0.05767    0.65498    1.000
    Si4906   Si       0.83472    0.09650    0.63399    1.000
    Si4907   Si       0.84326    0.05591    0.69625    1.000
    N4908    N        0.85234    0.09567    0.71074    1.000
    N4909    N        0.84407    0.13404    0.65356    1.000
    Si4910   Si       0.86634    0.13270    0.69177    1.000
    N4911    N        0.84814    0.22572    0.68241    1.000
    N4912    N        0.86456    0.15123    0.73343    1.000
    Si4913   Si       0.83082    0.22375    0.64173    1.000
    Si4914   Si       0.84196    0.24953    0.74198    1.000
    Si4915   Si       0.87437    0.16021    0.63766    1.000
    N4916    N        0.84716    0.02968    0.77149    1.000
    N4917    N        0.81604    0.12333    0.85009    1.000
    N4918    N        0.82111    0.02220    0.83550    1.000
    Si4919   Si       0.86147    0.11153    0.75318    1.000
    Si4920   Si       0.85794    0.12003    0.86585    1.000
    N4921    N        0.83135    0.12747    0.78047    1.000
    N4922    N        0.86685    0.07719    0.86801    1.000
    Si4923   Si       0.85410    0.01032    0.80946    1.000
    Si4924   Si       0.82534    0.16930    0.75553    1.000
    N4925    N        0.84931    0.20999    0.75671    1.000
    Si4926   Si       0.82983    0.25518    0.86211    1.000
    Si4927   Si       0.85951    0.01901    0.95549    1.000
    Si4928   Si       0.82455    0.11257    0.93128    1.000
    Si4929   Si       0.84037    0.05037    0.89084    1.000
    N4930    N        0.84082    0.09398    0.96962    1.000
    N4931    N        0.82040    0.03399    0.96710    1.000
    N4932    N        0.87173    0.03425    0.91820    1.000
    Si4933   Si       0.83959    0.23704    0.93059    1.000
    N4934    N        0.85304    0.13445    0.90585    1.000
    N4935    N        0.86280    0.20897    0.90510    1.000
    Si4936   Si       0.86891    0.17064    0.92419    1.000
    N4937    N        0.85112    0.16859    0.96435    1.000
    N4938    N        0.82574    0.35088    0.04067    1.000
    Si4939   Si       0.82255    0.31757    0.01389    1.000
    N4940    N        0.86497    0.30421    0.02848    1.000
    Si4941   Si       0.86591    0.33844    0.05605    1.000
    N4942    N        0.86884    0.31985    0.09422    1.000
    Si4943   Si       0.82697    0.46094    0.06151    1.000
    N4944    N        0.83871    0.45324    0.10175    1.000
    N4945    N        0.83835    0.42341    0.03838    1.000
    N4946    N        0.85000    0.49029    0.03798    1.000
    Si4947   Si       0.83869    0.50351    0.99777    1.000
    Si4948   Si       0.83658    0.31205    0.12330    1.000
    Si4949   Si       0.82519    0.36875    0.17432    1.000
    N4950    N        0.84068    0.26851    0.12965    1.000
    N4951    N        0.84648    0.33416    0.16064    1.000
    Si4952   Si       0.86667    0.28608    0.22679    1.000
    N4953    N        0.82459    0.38233    0.21534    1.000
    Si4954   Si       0.81649    0.42237    0.12367    1.000
    Si4955   Si       0.81669    0.41168    0.24420    1.000
    N4956    N        0.84638    0.39954    0.14995    1.000
    N4957    N        0.83411    0.36065    0.31175    1.000
    N4958    N        0.85077    0.29166    0.34628    1.000
    Si4959   Si       0.85880    0.33477    0.33869    1.000
    N4960    N        0.83100    0.30238    0.24096    1.000
    N4961    N        0.85016    0.42193    0.27123    1.000
    N4962    N        0.84204    0.49502    0.26828    1.000
    Si4963   Si       0.86410    0.38990    0.29572    1.000
    N4964    N        0.85843    0.35818    0.37702    1.000
    Si4965   Si       0.84671    0.33660    0.41303    1.000
    N4966    N        0.85838    0.36822    0.44142    1.000
    N4967    N        0.85668    0.29652    0.42605    1.000
    Si4968   Si       0.82973    0.26414    0.42694    1.000
    Si4969   Si       0.83856    0.39711    0.46708    1.000
    Si4970   Si       0.86493    0.40089    0.37562    1.000
    Si4971   Si       0.86344    0.44985    0.42190    1.000
    Si4972   Si       0.84569    0.46827    0.47972    1.000
    N4973    N        0.83567    0.48101    0.43955    1.000
    N4974    N        0.86494    0.43250    0.46331    1.000
    N4975    N        0.83588    0.42503    0.39605    1.000
    Si4976   Si       0.85117    0.35140    0.53614    1.000
    N4977    N        0.86225    0.31093    0.52971    1.000
    N4978    N        0.86445    0.37759    0.56891    1.000
    Si4979   Si       0.85610    0.37919    0.61185    1.000
    Si4980   Si       0.82406    0.26194    0.58716    1.000
    N4981    N        0.83844    0.38239    0.50674    1.000
    Si4982   Si       0.83588    0.41667    0.53606    1.000
    N4983    N        0.82279    0.47259    0.57767    1.000
    Si4984   Si       0.84972    0.50342    0.59385    1.000
    N4985    N        0.81577    0.45088    0.50830    1.000
    N4986    N        0.87402    0.49361    0.49908    1.000
    N4987    N        0.83007    0.26487    0.62847    1.000
    N4988    N        0.83488    0.34436    0.62757    1.000
    Si4989   Si       0.83592    0.30518    0.64898    1.000
    N4990    N        0.83723    0.38025    0.68241    1.000
    N4991    N        0.85561    0.35836    0.74994    1.000
    Si4992   Si       0.82605    0.37913    0.72367    1.000
    N4993    N        0.83169    0.47178    0.67226    1.000
    N4994    N        0.82528    0.42296    0.73640    1.000
    N4995    N        0.84352    0.42081    0.62249    1.000
    Si4996   Si       0.83104    0.46252    0.71466    1.000
    Si4997   Si       0.86055    0.45174    0.64818    1.000
    N4998    N        0.87048    0.47384    0.72766    1.000
    N4999    N        0.83313    0.28348    0.76609    1.000
    Si5000   Si       0.84391    0.32615    0.77591    1.000
    N5001    N        0.82153    0.36716    0.84553    1.000
    N5002    N        0.82293    0.28891    0.83541    1.000
    Si5003   Si       0.86641    0.29916    0.84084    1.000
    N5004    N        0.80856    0.46036    0.80105    1.000
    Si5005   Si       0.82340    0.42272    0.77950    1.000
    Si5006   Si       0.85118    0.39884    0.84259    1.000
    N5007    N        0.85832    0.41369    0.80288    1.000
    Si5008   Si       0.81744    0.49268    0.82853    1.000
    N5009    N        0.86078    0.48887    0.83802    1.000
    N5010    N        0.83925    0.43318    0.86654    1.000
    N5011    N        0.85402    0.25903    0.96574    1.000
    N5012    N        0.86257    0.32549    0.87777    1.000
    Si5013   Si       0.84702    0.36303    0.95460    1.000
    N5014    N        0.84139    0.32575    0.97641    1.000
    N5015    N        0.82538    0.26771    0.90425    1.000
    Si5016   Si       0.82352    0.34338    0.88135    1.000
    N5017    N        0.82306    0.36969    0.91645    1.000
    Si5018   Si       0.87083    0.29331    0.98463    1.000
    N5019    N        0.82400    0.39829    0.97028    1.000
    N5020    N        0.82893    0.46715    0.97573    1.000
    Si5021   Si       0.84037    0.42944    0.99359    1.000
    N5022    N        0.85764    0.48199    0.91166    1.000
    Si5023   Si       0.81943    0.47694    0.93400    1.000
    Si5024   Si       0.87090    0.46475    0.87204    1.000
    N5025    N        0.82825    0.59989    0.01112    1.000
    Si5026   Si       0.82706    0.56212    0.08576    1.000
    N5027    N        0.86116    0.55857    0.05971    1.000
    N5028    N        0.84919    0.70529    0.10174    1.000
    N5029    N        0.82536    0.65651    0.05634    1.000
    Si5030   Si       0.81971    0.67483    0.09666    1.000
    Si5031   Si       0.84325    0.74917    0.09972    1.000
    N5032    N        0.86597    0.68241    0.00220    1.000
    Si5033   Si       0.86719    0.66421    0.04248    1.000
    N5034    N        0.84222    0.57451    0.12463    1.000
    Si5035   Si       0.86202    0.51989    0.17408    1.000
    Si5036   Si       0.83417    0.60220    0.22812    1.000
    N5037    N        0.81808    0.52981    0.17523    1.000
    N5038    N        0.81769    0.60001    0.18660    1.000
    N5039    N        0.87269    0.53454    0.21500    1.000
    Si5040   Si       0.85145    0.75391    0.17762    1.000
    N5041    N        0.84197    0.72071    0.20573    1.000
    N5042    N        0.85315    0.65600    0.18388    1.000
    Si5043   Si       0.81427    0.64112    0.17237    1.000
    N5044    N        0.82883    0.55744    0.34357    1.000
    Si5045   Si       0.85192    0.53392    0.25410    1.000
    N5046    N        0.82006    0.56741    0.25090    1.000
    N5047    N        0.82279    0.66123    0.31323    1.000
    Si5048   Si       0.85081    0.65355    0.28184    1.000
    Si5049   Si       0.83501    0.69608    0.34059    1.000
    N5050    N        0.82115    0.73087    0.31557    1.000
    N5051    N        0.82813    0.63859    0.24993    1.000
    N5052    N        0.86995    0.71707    0.35805    1.000
    Si5053   Si       0.85172    0.57733    0.37907    1.000
    N5054    N        0.86140    0.54353    0.40415    1.000
    N5055    N        0.85202    0.61592    0.47252    1.000
    N5056    N        0.83619    0.54273    0.46940    1.000
    N5057    N        0.83151    0.61281    0.39463    1.000
    Si5058   Si       0.83471    0.52293    0.43008    1.000
    Si5059   Si       0.82092    0.58488    0.47108    1.000
    N5060    N        0.85068    0.75348    0.49500    1.000
    Si5061   Si       0.85241    0.65047    0.39013    1.000
    N5062    N        0.81866    0.67680    0.37674    1.000
    N5063    N        0.83489    0.69193    0.48305    1.000
    Si5064   Si       0.83880    0.65562    0.46101    1.000
    Si5065   Si       0.81455    0.73295    0.48129    1.000
    N5066    N        0.82363    0.58008    0.57595    1.000
    Si5067   Si       0.85570    0.53177    0.50865    1.000
    Si5068   Si       0.86546    0.57301    0.56304    1.000
    N5069    N        0.81897    0.51889    0.52788    1.000
    N5070    N        0.85197    0.62461    0.53849    1.000
    Si5071   Si       0.81458    0.56798    0.61570    1.000
    N5072    N        0.87437    0.57009    0.51866    1.000
    N5073    N        0.82786    0.52749    0.62367    1.000
    N5074    N        0.87307    0.53054    0.56766    1.000
    Si5075   Si       0.85538    0.65883    0.56472    1.000
    N5076    N        0.83797    0.72534    0.60519    1.000
    N5077    N        0.86481    0.69832    0.54387    1.000
    N5078    N        0.81763    0.65378    0.58517    1.000
    Si5079   Si       0.86883    0.71356    0.50383    1.000
    Si5080   Si       0.82789    0.68454    0.61715    1.000
    N5081    N        0.83654    0.59542    0.64244    1.000
    N5082    N        0.85880    0.53653    0.68605    1.000
    N5083    N        0.83664    0.62425    0.70963    1.000
    Si5084   Si       0.82609    0.51557    0.66516    1.000
    Si5085   Si       0.83197    0.62954    0.66790    1.000
    N5086    N        0.81476    0.56461    0.74399    1.000
    N5087    N        0.84422    0.75232    0.67583    1.000
    Si5088   Si       0.84120    0.70731    0.68499    1.000
    N5089    N        0.83922    0.67266    0.65704    1.000
    N5090    N        0.84934    0.69008    0.72840    1.000
    Si5091   Si       0.85817    0.64899    0.73872    1.000
    N5092    N        0.82024    0.75260    0.74139    1.000
    Si5093   Si       0.82658    0.55143    0.78194    1.000
    Si5094   Si       0.82688    0.62110    0.81121    1.000
    N5095    N        0.81565    0.58008    0.81398    1.000
    N5096    N        0.83236    0.63036    0.76998    1.000
    N5097    N        0.86415    0.62963    0.82995    1.000
    N5098    N        0.86762    0.53980    0.78756    1.000
    Si5099   Si       0.84104    0.71765    0.75885    1.000
    Si5100   Si       0.85589    0.56816    0.90672    1.000
    Si5101   Si       0.83506    0.60462    0.96839    1.000
    N5102    N        0.83184    0.54727    0.87838    1.000
    N5103    N        0.83235    0.57048    0.94238    1.000
    N5104    N        0.82233    0.63565    0.88482    1.000
    Si5105   Si       0.83328    0.67004    0.97705    1.000
    Si5106   Si       0.86406    0.63463    0.87421    1.000
    N5107    N        0.83525    0.68511    0.93538    1.000
    Si5108   Si       0.83935    0.86233    0.05285    1.000
    N5109    N        0.83478    0.81994    0.06136    1.000
    N5110    N        0.82247    0.86241    0.01267    1.000
    N5111    N        0.82651    0.76150    0.01402    1.000
    Si5112   Si       0.82763    0.99647    0.05592    1.000
    N5113    N        0.82387    0.89657    0.07483    1.000
    Si5114   Si       0.84880    0.93100    0.07506    1.000
    N5115    N        0.84256    0.95862    0.04067    1.000
    N5116    N        0.83279    0.95332    0.11144    1.000
    Si5117   Si       0.86089    0.95770    0.99880    1.000
    N5118    N        0.85745    0.81371    0.23861    1.000
    N5119    N        0.83909    0.76778    0.13869    1.000
    Si5120   Si       0.81825    0.79398    0.24036    1.000
    N5121    N        0.81707    0.77819    0.19721    1.000
    N5122    N        0.82834    0.93951    0.23076    1.000
    N5123    N        0.86256    0.96211    0.18034    1.000
    Si5124   Si       0.82432    0.96782    0.19826    1.000
    Si5125   Si       0.85263    0.98876    0.12431    1.000
    Si5126   Si       0.84047    0.89821    0.22832    1.000
    N5127    N        0.82375    0.00658    0.21984    1.000
    Si5128   Si       0.85602    0.83418    0.28022    1.000
    N5129    N        0.83225    0.80027    0.29508    1.000
    N5130    N        0.85010    0.85429    0.32697    1.000
    N5131    N        0.84947    0.78353    0.35557    1.000
    Si5132   Si       0.82948    0.81670    0.33642    1.000
    N5133    N        0.83348    0.87239    0.26638    1.000
    Si5134   Si       0.84947    0.76420    0.31591    1.000
    Si5135   Si       0.83256    0.88887    0.30786    1.000
    N5136    N        0.84638    0.99075    0.28223    1.000
    N5137    N        0.84845    0.98197    0.35482    1.000
    N5138    N        0.84475    0.93014    0.29922    1.000
    Si5139   Si       0.85863    0.94366    0.33753    1.000
    Si5140   Si       0.82418    0.95279    0.27067    1.000
    N5141    N        0.85346    0.91030    0.36247    1.000
    Si5142   Si       0.84635    0.84061    0.43235    1.000
    N5143    N        0.82305    0.87473    0.44601    1.000
    N5144    N        0.86360    0.85885    0.39855    1.000
    N5145    N        0.86749    0.81445    0.45866    1.000
    Si5146   Si       0.82524    0.88403    0.49018    1.000
    Si5147   Si       0.81272    0.77364    0.41530    1.000
    N5148    N        0.85378    0.75996    0.41949    1.000
    Si5149   Si       0.87074    0.76864    0.45731    1.000
    Si5150   Si       0.83782    0.89551    0.40357    1.000
    N5151    N        0.84198    0.93535    0.42170    1.000
    N5152    N        0.82361    0.92747    0.48674    1.000
    N5153    N        0.84952    0.85357    0.57092    1.000
    N5154    N        0.82482    0.78651    0.55289    1.000
    Si5155   Si       0.83396    0.76781    0.59282    1.000
    Si5156   Si       0.87250    0.77231    0.53290    1.000
    N5157    N        0.86643    0.87304    0.50061    1.000
    Si5158   Si       0.81722    0.82975    0.55363    1.000
    Si5159   Si       0.84191    0.89337    0.58193    1.000
    N5160    N        0.82281    0.92079    0.55466    1.000
    Si5161   Si       0.84427    0.94025    0.52269    1.000
    N5162    N        0.84684    0.98345    0.52349    1.000
    N5163    N        0.84907    0.88067    0.73087    1.000
    Si5164   Si       0.81737    0.78566    0.66976    1.000
    Si5165   Si       0.83091    0.79569    0.73930    1.000
    Si5166   Si       0.85669    0.85034    0.69844    1.000
    N5167    N        0.85439    0.87789    0.66257    1.000
    N5168    N        0.83413    0.81381    0.69944    1.000
    N5169    N        0.81631    0.79009    0.62638    1.000
    N5170    N        0.85130    0.96592    0.73650    1.000
    N5171    N        0.83237    0.84331    0.83002    1.000
    N5172    N        0.82856    0.77464    0.81262    1.000
    Si5173   Si       0.86848    0.77235    0.79191    1.000
    N5174    N        0.87210    0.79304    0.75194    1.000
    Si5175   Si       0.84417    0.83781    0.87249    1.000
    Si5176   Si       0.84261    0.88666    0.83439    1.000
    N5177    N        0.84977    0.96791    0.80113    1.000
    Si5178   Si       0.82467    0.95518    0.76858    1.000
    Si5179   Si       0.81554    0.99310    0.86616    1.000
    Si5180   Si       0.82156    0.83162    0.94191    1.000
    N5181    N        0.84477    0.86902    0.94677    1.000
    N5182    N        0.84539    0.79681    0.95203    1.000
    Si5183   Si       0.85786    0.77699    0.98967    1.000
    N5184    N        0.85808    0.87809    0.87498    1.000
    Si5185   Si       0.83438    0.89247    0.98510    1.000
    Si5186   Si       0.85186    0.95830    0.91969    1.000
    N5187    N        0.85331    0.97798    0.88005    1.000
    Si5188   Si       0.85143    0.89689    0.91179    1.000
    N5189    N        0.85456    0.97552    0.95883    1.000
    N5190    N        0.82111    0.92809    0.91109    1.000
    N5191    N        0.86977    0.91541    0.99362    1.000
    Si5192   Si       0.89165    0.02591    0.02159    1.000
    N5193    N        0.89584    0.05438    0.05423    1.000
    Si5194   Si       0.88353    0.11690    0.11349    1.000
    N5195    N        0.88464    0.13218    0.07101    1.000
    N5196    N        0.91014    0.25833    0.01888    1.000
    Si5197   Si       0.90974    0.16499    0.05604    1.000
    N5198    N        0.89671    0.18659    0.01970    1.000
    N5199    N        0.90497    0.19363    0.08812    1.000
    Si5200   Si       0.92665    0.21817    0.01205    1.000
    Si5201   Si       0.87380    0.19115    0.11853    1.000
    N5202    N        0.91999    0.04509    0.16161    1.000
    N5203    N        0.92020    0.10734    0.13437    1.000
    N5204    N        0.90933    0.08282    0.23386    1.000
    N5205    N        0.89045    0.01964    0.21328    1.000
    Si5206   Si       0.92059    0.05151    0.20523    1.000
    Si5207   Si       0.92580    0.13055    0.17172    1.000
    N5208    N        0.89130    0.21742    0.14913    1.000
    N5209    N        0.89063    0.13854    0.19569    1.000
    Si5210   Si       0.89227    0.15113    0.23719    1.000
    Si5211   Si       0.90725    0.06473    0.35187    1.000
    N5212    N        0.90056    0.02031    0.33736    1.000
    Si5213   Si       0.87266    0.11788    0.35828    1.000
    Si5214   Si       0.90620    0.23048    0.27958    1.000
    Si5215   Si       0.90708    0.18362    0.34107    1.000
    N5216    N        0.92319    0.19458    0.30259    1.000
    N5217    N        0.88418    0.21343    0.36482    1.000
    Si5218   Si       0.87754    0.25462    0.34654    1.000
    N5219    N        0.87346    0.15695    0.33977    1.000
    N5220    N        0.88643    0.19410    0.24966    1.000
    N5221    N        0.87239    0.25433    0.25807    1.000
    N5222    N        0.91518    0.10861    0.37406    1.000
    N5223    N        0.92430    0.02188    0.45873    1.000
    N5224    N        0.91627    0.04778    0.39233    1.000
    N5225    N        0.87872    0.08321    0.43509    1.000
    Si5226   Si       0.91487    0.08556    0.41337    1.000
    Si5227   Si       0.93232    0.10852    0.48294    1.000
    Si5228   Si       0.88234    0.00502    0.37483    1.000
    Si5229   Si       0.87342    0.07487    0.47626    1.000
    N5230    N        0.90999    0.21430    0.47678    1.000
    Si5231   Si       0.91386    0.17575    0.45529    1.000
    N5232    N        0.90590    0.14387    0.48544    1.000
    Si5233   Si       0.92755    0.25377    0.48447    1.000
    N5234    N        0.87983    0.16977    0.42791    1.000
    Si5235   Si       0.89383    0.11148    0.58209    1.000
    Si5236   Si       0.91834    0.06071    0.53856    1.000
    N5237    N        0.88391    0.03862    0.55591    1.000
    N5238    N        0.90869    0.07763    0.50072    1.000
    N5239    N        0.87432    0.12248    0.54241    1.000
    Si5240   Si       0.89038    0.15852    0.52641    1.000
    N5241    N        0.89698    0.14607    0.60430    1.000
    N5242    N        0.91491    0.21406    0.59188    1.000
    Si5243   Si       0.87193    0.21271    0.58265    1.000
    Si5244   Si       0.90123    0.01162    0.67873    1.000
    N5245    N        0.88092    0.03572    0.70845    1.000
    Si5246   Si       0.88169    0.25605    0.68339    1.000
    N5247    N        0.91640    0.24874    0.65896    1.000
    N5248    N        0.91732    0.19502    0.72479    1.000
    N5249    N        0.90158    0.14796    0.66966    1.000
    Si5250   Si       0.88491    0.18708    0.74967    1.000
    Si5251   Si       0.90455    0.05891    0.85664    1.000
    N5252    N        0.89193    0.02062    0.83382    1.000
    N5253    N        0.89285    0.08127    0.76219    1.000
    Si5254   Si       0.88401    0.04020    0.75211    1.000
    N5255    N        0.92744    0.08259    0.83047    1.000
    N5256    N        0.89028    0.14099    0.85044    1.000
    N5257    N        0.92054    0.20745    0.85349    1.000
    Si5258   Si       0.90946    0.17481    0.83058    1.000
    N5259    N        0.90293    0.18302    0.78839    1.000
    N5260    N        0.90783    0.09151    0.93756    1.000
    Si5261   Si       0.88260    0.08853    0.97512    1.000
    N5262    N        0.88614    0.04559    0.98378    1.000
    Si5263   Si       0.91300    0.04884    0.92597    1.000
    Si5264   Si       0.92952    0.12745    0.93069    1.000
    N5265    N        0.89566    0.12168    0.99986    1.000
    Si5266   Si       0.89165    0.22821    0.87951    1.000
    N5267    N        0.91186    0.16860    0.92902    1.000
    N5268    N        0.91679    0.24287    0.91276    1.000
    N5269    N        0.89000    0.37231    0.04765    1.000
    Si5270   Si       0.90452    0.29917    0.10735    1.000
    Si5271   Si       0.88085    0.26987    0.05068    1.000
    N5272    N        0.91063    0.26346    0.08224    1.000
    N5273    N        0.90949    0.43920    0.05636    1.000
    Si5274   Si       0.88116    0.41321    0.03676    1.000
    N5275    N        0.88942    0.50127    0.09999    1.000
    N5276    N        0.89301    0.31790    0.21504    1.000
    N5277    N        0.91352    0.36024    0.15433    1.000
    N5278    N        0.89870    0.29107    0.15023    1.000
    Si5279   Si       0.88816    0.32738    0.17146    1.000
    Si5280   Si       0.91435    0.34363    0.24187    1.000
    N5281    N        0.90853    0.41777    0.18843    1.000
    Si5282   Si       0.87605    0.46537    0.12141    1.000
    N5283    N        0.89805    0.42996    0.12123    1.000
    Si5284   Si       0.89191    0.39921    0.15316    1.000
    N5285    N        0.89260    0.45945    0.23822    1.000
    N5286    N        0.87569    0.47879    0.16376    1.000
    Si5287   Si       0.89880    0.46018    0.19583    1.000
    N5288    N        0.90047    0.33407    0.32591    1.000
    N5289    N        0.89521    0.37226    0.27072    1.000
    Si5290   Si       0.92522    0.36114    0.30139    1.000
    N5291    N        0.90943    0.26034    0.31348    1.000
    Si5292   Si       0.92553    0.29996    0.31359    1.000
    N5293    N        0.92777    0.45617    0.35763    1.000
    N5294    N        0.87966    0.40873    0.33441    1.000
    N5295    N        0.90714    0.46330    0.29996    1.000
    Si5296   Si       0.91668    0.42882    0.32518    1.000
    Si5297   Si       0.91836    0.49117    0.33176    1.000
    Si5298   Si       0.86841    0.46071    0.27331    1.000
    N5299    N        0.90589    0.27539    0.37940    1.000
    N5300    N        0.91453    0.34560    0.41816    1.000
    N5301    N        0.91542    0.27855    0.45107    1.000
    Si5302   Si       0.88989    0.27001    0.41830    1.000
    Si5303   Si       0.89959    0.38288    0.43411    1.000
    N5304    N        0.93041    0.39773    0.46091    1.000
    N5305    N        0.89444    0.47918    0.41088    1.000
    Si5306   Si       0.92345    0.44922    0.39856    1.000
    N5307    N        0.89674    0.41336    0.40323    1.000
    N5308    N        0.90719    0.36801    0.52023    1.000
    N5309    N        0.91593    0.26615    0.52363    1.000
    Si5310   Si       0.87516    0.27160    0.53098    1.000
    Si5311   Si       0.90010    0.46507    0.51961    1.000
    Si5312   Si       0.89846    0.39696    0.55110    1.000
    N5313    N        0.92072    0.47658    0.55592    1.000
    N5314    N        0.87655    0.43131    0.53360    1.000
    N5315    N        0.92587    0.41230    0.57976    1.000
    N5316    N        0.90059    0.36301    0.70068    1.000
    Si5317   Si       0.90802    0.32484    0.68003    1.000
    Si5318   Si       0.92284    0.27463    0.74086    1.000
    Si5319   Si       0.89538    0.37071    0.74283    1.000
    N5320    N        0.87222    0.29993    0.67194    1.000
    N5321    N        0.89364    0.38007    0.63327    1.000
    N5322    N        0.88384    0.26160    0.72672    1.000
    Si5323   Si       0.90064    0.44574    0.71705    1.000
    Si5324   Si       0.91802    0.49284    0.62939    1.000
    N5325    N        0.92176    0.50738    0.67153    1.000
    N5326    N        0.88734    0.43129    0.67657    1.000
    N5327    N        0.87688    0.48251    0.62179    1.000
    Si5328   Si       0.87905    0.38834    0.67435    1.000
    Si5329   Si       0.92018    0.32208    0.80061    1.000
    N5330    N        0.87699    0.31754    0.80492    1.000
    N5331    N        0.92641    0.35501    0.77264    1.000
    N5332    N        0.87284    0.25999    0.85918    1.000
    N5333    N        0.88494    0.38573    0.86490    1.000
    Si5334   Si       0.92107    0.40790    0.85684    1.000
    Si5335   Si       0.89650    0.43115    0.78920    1.000
    N5336    N        0.90694    0.47356    0.79026    1.000
    N5337    N        0.89900    0.41421    0.74807    1.000
    Si5338   Si       0.89156    0.35474    0.89470    1.000
    Si5339   Si       0.92158    0.33535    0.94474    1.000
    N5340    N        0.91090    0.30708    0.97487    1.000
    N5341    N        0.88693    0.36195    0.93679    1.000
    N5342    N        0.92556    0.32066    0.90345    1.000
    N5343    N        0.88410    0.42150    0.99484    1.000
    Si5344   Si       0.88979    0.50286    0.93482    1.000
    Si5345   Si       0.92632    0.42209    0.98440    1.000
    N5346    N        0.92850    0.48112    0.93136    1.000
    N5347    N        0.91105    0.44986    0.87347    1.000
    N5348    N        0.89976    0.61372    0.10986    1.000
    N5349    N        0.91576    0.51536    0.03715    1.000
    N5350    N        0.88504    0.62305    0.04367    1.000
    Si5351   Si       0.87611    0.51663    0.06001    1.000
    Si5352   Si       0.86694    0.58769    0.02966    1.000
    Si5353   Si       0.91095    0.53368    0.99855    1.000
    N5354    N        0.89884    0.57420    0.00064    1.000
    Si5355   Si       0.91215    0.63535    0.07502    1.000
    N5356    N        0.89799    0.67846    0.07076    1.000
    N5357    N        0.91964    0.72883    0.10435    1.000
    Si5358   Si       0.88941    0.69585    0.11445    1.000
    Si5359   Si       0.91757    0.52534    0.12445    1.000
    Si5360   Si       0.88202    0.58560    0.13650    1.000
    Si5361   Si       0.89821    0.56543    0.19721    1.000
    N5362    N        0.89321    0.54681    0.15469    1.000
    N5363    N        0.90152    0.60618    0.17175    1.000
    N5364    N        0.87842    0.59992    0.22863    1.000
    Si5365   Si       0.92582    0.62852    0.14226    1.000
    Si5366   Si       0.88749    0.63222    0.20083    1.000
    Si5367   Si       0.87331    0.69299    0.19277    1.000
    N5368    N        0.88324    0.71866    0.15900    1.000
    N5369    N        0.92337    0.67000    0.12937    1.000
    Si5370   Si       0.91247    0.75083    0.15342    1.000
    N5371    N        0.90732    0.67077    0.20985    1.000
    Si5372   Si       0.89311    0.58896    0.26940    1.000
    Si5373   Si       0.89463    0.62031    0.33309    1.000
    N5374    N        0.88490    0.58316    0.35105    1.000
    N5375    N        0.88582    0.51283    0.34764    1.000
    N5376    N        0.87614    0.61967    0.29426    1.000
    N5377    N        0.87765    0.55080    0.28619    1.000
    Si5378   Si       0.86964    0.54844    0.32932    1.000
    Si5379   Si       0.90310    0.71933    0.28941    1.000
    Si5380   Si       0.90374    0.69078    0.35681    1.000
    N5381    N        0.88148    0.65303    0.35898    1.000
    N5382    N        0.92733    0.70223    0.32112    1.000
    N5383    N        0.92955    0.72131    0.25426    1.000
    N5384    N        0.87485    0.68790    0.28364    1.000
    Si5385   Si       0.89209    0.51794    0.39122    1.000
    N5386    N        0.86700    0.65975    0.42960    1.000
    Si5387   Si       0.87160    0.75310    0.38049    1.000
    N5388    N        0.89570    0.70365    0.47077    1.000
    Si5389   Si       0.92710    0.73377    0.47689    1.000
    Si5390   Si       0.90174    0.66319    0.45905    1.000
    N5391    N        0.89047    0.59733    0.58989    1.000
    Si5392   Si       0.91663    0.52078    0.56165    1.000
    Si5393   Si       0.87877    0.61334    0.50593    1.000
    Si5394   Si       0.92953    0.61178    0.57630    1.000
    N5395    N        0.93143    0.52539    0.60135    1.000
    N5396    N        0.93224    0.59894    0.53624    1.000
    N5397    N        0.91797    0.71514    0.58534    1.000
    N5398    N        0.90854    0.74702    0.51789    1.000
    Si5399   Si       0.87494    0.71661    0.58434    1.000
    N5400    N        0.90529    0.64633    0.50040    1.000
    N5401    N        0.87254    0.67387    0.60402    1.000
    Si5402   Si       0.87906    0.59776    0.63109    1.000
    N5403    N        0.91716    0.57209    0.70826    1.000
    Si5404   Si       0.91304    0.61568    0.69478    1.000
    N5405    N        0.90566    0.56552    0.64530    1.000
    Si5406   Si       0.89880    0.54421    0.68142    1.000
    N5407    N        0.88750    0.62828    0.66096    1.000
    Si5408   Si       0.88613    0.67140    0.64527    1.000
    N5409    N        0.88572    0.70830    0.67061    1.000
    N5410    N        0.89831    0.63617    0.73006    1.000
    Si5411   Si       0.88726    0.75111    0.67263    1.000
    Si5412   Si       0.90958    0.55735    0.78817    1.000
    N5413    N        0.91744    0.53622    0.82620    1.000
    N5414    N        0.91916    0.59945    0.79338    1.000
    Si5415   Si       0.88735    0.50704    0.81079    1.000
    N5416    N        0.92891    0.71945    0.83970    1.000
    Si5417   Si       0.90504    0.63325    0.81445    1.000
    N5418    N        0.90714    0.67065    0.78841    1.000
    Si5419   Si       0.91032    0.71355    0.79741    1.000
    Si5420   Si       0.92300    0.68379    0.86543    1.000
    Si5421   Si       0.92601    0.66070    0.75038    1.000
    N5422    N        0.87048    0.72830    0.78990    1.000
    Si5423   Si       0.91918    0.57451    0.90576    1.000
    Si5424   Si       0.91196    0.60893    0.97579    1.000
    N5425    N        0.88342    0.59922    0.89323    1.000
    N5426    N        0.89369    0.54078    0.91373    1.000
    N5427    N        0.87878    0.51154    0.97620    1.000
    N5428    N        0.87273    0.62391    0.96565    1.000
    N5429    N        0.90671    0.69217    0.94728    1.000
    N5430    N        0.87384    0.74003    0.91170    1.000
    N5431    N        0.89149    0.74881    0.98197    1.000
    N5432    N        0.88375    0.67146    0.88548    1.000
    Si5433   Si       0.90064    0.70664    0.98754    1.000
    Si5434   Si       0.87378    0.69879    0.91904    1.000
    N5435    N        0.88202    0.86149    0.05936    1.000
    Si5436   Si       0.91511    0.77012    0.08752    1.000
    Si5437   Si       0.87993    0.81387    0.05478    1.000
    N5438    N        0.88063    0.80957    0.01016    1.000
    N5439    N        0.92358    0.81218    0.06692    1.000
    N5440    N        0.87246    0.77229    0.07603    1.000
    Si5441   Si       0.91109    0.89270    0.05851    1.000
    N5442    N        0.89491    0.98189    0.01241    1.000
    N5443    N        0.89006    0.92149    0.08202    1.000
    Si5444   Si       0.91561    0.95299    0.09847    1.000
    N5445    N        0.89563    0.98386    0.12129    1.000
    N5446    N        0.91578    0.78556    0.12803    1.000
    Si5447   Si       0.89164    0.80438    0.21433    1.000
    N5448    N        0.90269    0.84062    0.19094    1.000
    N5449    N        0.88941    0.77427    0.18590    1.000
    Si5450   Si       0.91903    0.82030    0.15379    1.000
    N5451    N        0.92524    0.79298    0.23696    1.000
    Si5452   Si       0.91436    0.87996    0.20531    1.000
    N5453    N        0.92599    0.85502    0.12640    1.000
    Si5454   Si       0.89786    0.94312    0.19676    1.000
    N5455    N        0.88070    0.90402    0.21301    1.000
    N5456    N        0.91932    0.95417    0.23359    1.000
    Si5457   Si       0.92356    0.99807    0.23535    1.000
    Si5458   Si       0.90039    0.00591    0.16060    1.000
    N5459    N        0.92812    0.97612    0.17574    1.000
    N5460    N        0.89623    0.82800    0.29124    1.000
    Si5461   Si       0.91501    0.79056    0.27910    1.000
    N5462    N        0.91238    0.83816    0.35730    1.000
    Si5463   Si       0.92274    0.85038    0.31544    1.000
    Si5464   Si       0.87993    0.87132    0.35840    1.000
    N5465    N        0.88674    0.75889    0.29400    1.000
    N5466    N        0.90848    0.89038    0.32773    1.000
    N5467    N        0.89820    0.95570    0.32567    1.000
    Si5468   Si       0.88461    0.99237    0.30369    1.000
    N5469    N        0.91735    0.00535    0.27933    1.000
    Si5470   Si       0.93102    0.92678    0.32572    1.000
    N5471    N        0.92283    0.85429    0.48225    1.000
    N5472    N        0.91324    0.76556    0.44981    1.000
    Si5473   Si       0.88499    0.83442    0.49150    1.000
    N5474    N        0.91586    0.75913    0.38294    1.000
    N5475    N        0.91245    0.91433    0.42287    1.000
    Si5476   Si       0.88380    0.94654    0.42454    1.000
    N5477    N        0.88730    0.96166    0.46623    1.000
    N5478    N        0.90210    0.98226    0.40386    1.000
    Si5479   Si       0.88776    0.00538    0.47691    1.000
    Si5480   Si       0.89090    0.83940    0.56248    1.000
    Si5481   Si       0.91058    0.78054    0.59906    1.000
    N5482    N        0.90889    0.82312    0.59703    1.000
    N5483    N        0.88551    0.81301    0.52831    1.000
    N5484    N        0.91803    0.86946    0.54467    1.000
    N5485    N        0.87647    0.76342    0.57738    1.000
    Si5486   Si       0.90699    0.88934    0.50844    1.000
    N5487    N        0.88961    0.96963    0.58016    1.000
    Si5488   Si       0.90272    0.92940    0.56692    1.000
    N5489    N        0.88570    0.92767    0.52643    1.000
    N5490    N        0.91090    0.99373    0.51541    1.000
    N5491    N        0.88250    0.90366    0.59458    1.000
    Si5492   Si       0.88234    0.99660    0.54599    1.000
    Si5493   Si       0.91141    0.95215    0.50083    1.000
    N5494    N        0.90811    0.77041    0.64007    1.000
    N5495    N        0.89866    0.83840    0.70446    1.000
    Si5496   Si       0.90541    0.80066    0.72506    1.000
    N5497    N        0.92185    0.87577    0.64996    1.000
    N5498    N        0.91926    0.76588    0.70189    1.000
    Si5499   Si       0.92580    0.86994    0.69151    1.000
    Si5500   Si       0.90265    0.97570    0.61983    1.000
    Si5501   Si       0.89195    0.97378    0.74262    1.000
    N5502    N        0.87726    0.00423    0.64222    1.000
    N5503    N        0.90064    0.94084    0.64538    1.000
    N5504    N        0.91015    0.90841    0.70761    1.000
    Si5505   Si       0.88821    0.89557    0.74338    1.000
    Si5506   Si       0.92474    0.94268    0.68297    1.000
    N5507    N        0.91159    0.97768    0.70300    1.000
    Si5508   Si       0.88627    0.89916    0.63879    1.000
    N5509    N        0.90239    0.79010    0.81216    1.000
    Si5510   Si       0.90527    0.80802    0.85315    1.000
    N5511    N        0.92169    0.84891    0.84277    1.000
    N5512    N        0.91999    0.87467    0.76468    1.000
    Si5513   Si       0.91379    0.87453    0.80885    1.000
    N5514    N        0.91098    0.96118    0.82776    1.000
    Si5515   Si       0.88188    0.93942    0.80392    1.000
    N5516    N        0.90209    0.93534    0.76465    1.000
    Si5517   Si       0.89233    0.98589    0.86256    1.000
    Si5518   Si       0.92220    0.00064    0.80856    1.000
    N5519    N        0.87731    0.89774    0.81438    1.000
    N5520    N        0.90740    0.00512    0.76916    1.000
    Si5521   Si       0.87392    0.78106    0.92242    1.000
    N5522    N        0.91093    0.79802    0.94411    1.000
    Si5523   Si       0.91211    0.82126    0.98220    1.000
    N5524    N        0.91606    0.86207    0.97619    1.000
    N5525    N        0.87460    0.80861    0.88522    1.000
    Si5526   Si       0.92889    0.76575    0.96869    1.000
    Si5527   Si       0.91050    0.90286    0.98701    1.000
    Si5528   Si       0.92606    0.93817    0.91225    1.000
    N5529    N        0.92267    0.97914    0.89236    1.000
    N5530    N        0.88337    0.92712    0.91571    1.000
    N5531    N        0.95497    0.05627    0.09044    1.000
    N5532    N        0.95521    0.08703    0.02267    1.000
    Si5533   Si       0.93797    0.05803    0.05058    1.000
    N5534    N        0.93908    0.02390    0.02427    1.000
    Si5535   Si       0.93785    0.12084    0.00565    1.000
    N5536    N        0.95303    0.21189    0.04638    1.000
    N5537    N        0.94465    0.14803    0.03948    1.000
    Si5538   Si       0.97832    0.17732    0.04190    1.000
    N5539    N        0.95384    0.22265    0.12119    1.000
    Si5540   Si       0.93320    0.22554    0.08329    1.000
    N5541    N        0.95754    0.10869    0.19331    1.000
    N5542    N        0.95272    0.02654    0.22445    1.000
    Si5543   Si       0.94496    0.10759    0.23467    1.000
    Si5544   Si       0.94002    0.06911    0.13103    1.000
    N5545    N        0.98029    0.06380    0.14495    1.000
    Si5546   Si       0.98719    0.04855    0.24075    1.000
    Si5547   Si       0.98714    0.23518    0.14740    1.000
    Si5548   Si       0.93286    0.20973    0.15829    1.000
    N5549    N        0.96093    0.23474    0.18274    1.000
    Si5550   Si       0.97235    0.24310    0.22519    1.000
    N5551    N        0.94559    0.16877    0.16328    1.000
    Si5552   Si       0.98972    0.16645    0.16619    1.000
    N5553    N        0.97072    0.08683    0.26020    1.000
    Si5554   Si       0.97386    0.08971    0.30532    1.000
    N5555    N        0.93936    0.06703    0.31918    1.000
    Si5556   Si       0.93819    0.02383    0.31366    1.000
    N5557    N        0.97124    0.13001    0.32571    1.000
    Si5558   Si       0.95150    0.13055    0.36588    1.000
    Si5559   Si       0.94499    0.18458    0.26731    1.000
    N5560    N        0.94003    0.17210    0.36486    1.000
    N5561    N        0.94240    0.22808    0.25323    1.000
    N5562    N        0.93362    0.14656    0.24676    1.000
    N5563    N        0.98783    0.17718    0.27523    1.000
    N5564    N        0.94429    0.10654    0.43953    1.000
    Si5565   Si       0.98527    0.10989    0.42834    1.000
    N5566    N        0.98705    0.04191    0.47729    1.000
    Si5567   Si       0.93142    0.01326    0.41636    1.000
    N5568    N        0.94971    0.18170    0.43233    1.000
    N5569    N        0.98692    0.13431    0.39275    1.000
    N5570    N        0.95961    0.23677    0.37576    1.000
    Si5571   Si       0.96326    0.19694    0.39177    1.000
    N5572    N        0.97030    0.25786    0.48912    1.000
    N5573    N        0.95913    0.04081    0.53029    1.000
    Si5574   Si       0.96089    0.08997    0.60180    1.000
    N5575    N        0.97768    0.04785    0.59985    1.000
    N5576    N        0.97106    0.11043    0.50026    1.000
    Si5577   Si       0.98708    0.06915    0.51055    1.000
    Si5578   Si       0.98966    0.03379    0.56103    1.000
    Si5579   Si       0.95329    0.01498    0.49299    1.000
    N5580    N        0.92849    0.08860    0.57180    1.000
    N5581    N        0.98187    0.24527    0.55163    1.000
    Si5582   Si       0.93078    0.24638    0.61597    1.000
    N5583    N        0.92695    0.16448    0.54834    1.000
    Si5584   Si       0.92948    0.17222    0.59054    1.000
    N5585    N        0.93761    0.03215    0.66315    1.000
    Si5586   Si       0.96489    0.01882    0.63028    1.000
    Si5587   Si       0.95583    0.07046    0.67461    1.000
    N5588    N        0.94868    0.09715    0.64315    1.000
    N5589    N        0.94572    0.08789    0.71322    1.000
    Si5590   Si       0.96819    0.12370    0.72455    1.000
    Si5591   Si       0.97989    0.19695    0.64204    1.000
    Si5592   Si       0.94212    0.13856    0.65782    1.000
    N5593    N        0.95439    0.25052    0.72481    1.000
    N5594    N        0.95472    0.16624    0.62562    1.000
    N5595    N        0.97071    0.21017    0.68224    1.000
    N5596    N        0.97423    0.23625    0.62352    1.000
    Si5597   Si       0.95822    0.20718    0.72515    1.000
    Si5598   Si       0.95703    0.25063    0.67790    1.000
    N5599    N        0.97348    0.14422    0.68887    1.000
    Si5600   Si       0.96209    0.06017    0.81848    1.000
    N5601    N        0.96803    0.07439    0.77877    1.000
    N5602    N        0.96106    0.01670    0.82167    1.000
    Si5603   Si       0.93477    0.08965    0.75630    1.000
    N5604    N        0.93840    0.13219    0.75369    1.000
    Si5605   Si       0.93198    0.12192    0.84987    1.000
    N5606    N        0.94597    0.15004    0.82074    1.000
    N5607    N        0.97233    0.19157    0.76379    1.000
    Si5608   Si       0.94251    0.16525    0.77887    1.000
    Si5609   Si       0.96224    0.21789    0.86109    1.000
    N5610    N        0.94872    0.12563    0.89002    1.000
    Si5611   Si       0.95810    0.01931    0.98508    1.000
    N5612    N        0.93866    0.01843    0.94670    1.000
    Si5613   Si       0.97952    0.05781    0.88476    1.000
    N5614    N        0.93498    0.05090    0.88790    1.000
    N5615    N        0.95601    0.13006    0.96673    1.000
    Si5616   Si       0.93238    0.20554    0.93086    1.000
    N5617    N        0.94147    0.22005    0.97128    1.000
    Si5618   Si       0.97567    0.24556    0.96206    1.000
    N5619    N        0.96922    0.20590    0.90326    1.000
    Si5620   Si       0.96574    0.30943    0.07101    1.000
    N5621    N        0.94315    0.31972    0.10568    1.000
    N5622    N        0.93750    0.32004    0.03784    1.000
    Si5623   Si       0.93548    0.29059    0.00628    1.000
    Si5624   Si       0.93152    0.36351    0.04228    1.000
    N5625    N        0.94764    0.38716    0.07559    1.000
    N5626    N        0.94387    0.38679    0.00608    1.000
    N5627    N        0.95204    0.48186    0.07498    1.000
    Si5628   Si       0.97252    0.47626    0.11439    1.000
    Si5629   Si       0.93117    0.42449    0.09279    1.000
    N5630    N        0.94072    0.46110    0.99893    1.000
    N5631    N        0.96577    0.43451    0.11693    1.000
    Si5632   Si       0.92820    0.47239    0.03917    1.000
    Si5633   Si       0.95481    0.34576    0.13921    1.000
    N5634    N        0.94469    0.36675    0.22172    1.000
    Si5635   Si       0.98196    0.35891    0.20138    1.000
    N5636    N        0.98102    0.32780    0.17070    1.000
    N5637    N        0.97773    0.28339    0.23612    1.000
    N5638    N        0.98469    0.37425    0.12528    1.000
    N5639    N        0.98309    0.39968    0.18491    1.000
    N5640    N        0.93693    0.48016    0.20216    1.000
    Si5641   Si       0.94472    0.40912    0.21222    1.000
    N5642    N        0.95390    0.50383    0.14178    1.000
    N5643    N        0.95876    0.30244    0.33916    1.000
    N5644    N        0.94026    0.32522    0.27530    1.000
    Si5645   Si       0.98126    0.31790    0.26166    1.000
    N5646    N        0.94456    0.39629    0.31806    1.000
    Si5647   Si       0.98718    0.39763    0.33068    1.000
    N5648    N        0.95645    0.43509    0.24492    1.000
    Si5649   Si       0.93354    0.47362    0.24784    1.000
    Si5650   Si       0.94876    0.27725    0.37423    1.000
    N5651    N        0.95253    0.33214    0.47227    1.000
    Si5652   Si       0.93701    0.31395    0.43604    1.000
    N5653    N        0.96410    0.29822    0.40839    1.000
    Si5654   Si       0.93970    0.36909    0.49120    1.000
    Si5655   Si       0.97791    0.30155    0.49533    1.000
    N5656    N        0.93406    0.46244    0.49293    1.000
    N5657    N        0.95980    0.44697    0.42117    1.000
    Si5658   Si       0.94941    0.43615    0.46200    1.000
    N5659    N        0.95603    0.35432    0.58753    1.000
    N5660    N        0.96681    0.31260    0.53531    1.000
    Si5661   Si       0.97678    0.35233    0.55028    1.000
    Si5662   Si       0.95427    0.31700    0.60956    1.000
    Si5663   Si       0.94948    0.27578    0.55068    1.000
    N5664    N        0.93580    0.28161    0.59142    1.000
    N5665    N        0.97206    0.38259    0.51787    1.000
    Si5666   Si       0.93288    0.38167    0.61342    1.000
    Si5667   Si       0.94451    0.45054    0.57926    1.000
    Si5668   Si       0.95381    0.50073    0.49839    1.000
    N5669    N        0.98550    0.45359    0.57077    1.000
    N5670    N        0.94373    0.46091    0.62144    1.000
    Si5671   Si       0.97680    0.30744    0.70510    1.000
    N5672    N        0.93356    0.30666    0.71230    1.000
    N5673    N        0.93139    0.32632    0.64345    1.000
    N5674    N        0.98771    0.34768    0.69163    1.000
    N5675    N        0.98244    0.46497    0.67427    1.000
    Si5676   Si       0.95488    0.49214    0.69286    1.000
    Si5677   Si       0.97939    0.44249    0.63728    1.000
    N5678    N        0.96513    0.39967    0.63907    1.000
    N5679    N        0.93651    0.46856    0.72585    1.000
    N5680    N        0.93795    0.28788    0.77933    1.000
    N5681    N        0.96458    0.26234    0.86580    1.000
    Si5682   Si       0.98275    0.28469    0.77872    1.000
    N5683    N        0.93458    0.33115    0.83896    1.000
    Si5684   Si       0.95238    0.38642    0.78535    1.000
    N5685    N        0.97762    0.47967    0.77796    1.000
    Si5686   Si       0.93743    0.49004    0.76325    1.000
    N5687    N        0.97465    0.40372    0.75253    1.000
    N5688    N        0.92812    0.41179    0.81277    1.000
    N5689    N        0.96290    0.49814    0.86660    1.000
    Si5690   Si       0.95286    0.34145    0.87644    1.000
    N5691    N        0.96268    0.34162    0.95680    1.000
    Si5692   Si       0.94112    0.27680    0.90190    1.000
    N5693    N        0.97257    0.27687    0.93234    1.000
    N5694    N        0.97820    0.27779    0.99329    1.000
    Si5695   Si       0.98662    0.30668    0.95897    1.000
    Si5696   Si       0.97238    0.38008    0.97308    1.000
    Si5697   Si       0.95549    0.48691    0.96525    1.000
    Si5698   Si       0.94414    0.46865    0.89286    1.000
    N5699    N        0.95055    0.40989    0.94834    1.000
    N5700    N        0.98172    0.44593    0.89337    1.000
    N5701    N        0.94931    0.38410    0.88071    1.000
    Si5702   Si       0.97200    0.40858    0.91075    1.000
    Si5703   Si       0.96280    0.58823    0.10010    1.000
    N5704    N        0.95160    0.61404    0.06656    1.000
    Si5705   Si       0.95073    0.52345    0.06395    1.000
    Si5706   Si       0.96479    0.61797    0.02472    1.000
    N5707    N        0.94034    0.55095    0.09580    1.000
    N5708    N        0.97461    0.58297    0.00314    1.000
    N5709    N        0.96766    0.69574    0.07829    1.000
    N5710    N        0.94090    0.75460    0.05404    1.000
    Si5711   Si       0.93048    0.71022    0.05945    1.000
    N5712    N        0.93199    0.70120    0.01615    1.000
    N5713    N        0.98845    0.65459    0.02684    1.000
    Si5714   Si       0.96060    0.67378    0.99863    1.000
    N5715    N        0.93881    0.63726    0.99509    1.000
    Si5716   Si       0.95768    0.51373    0.18440    1.000
    N5717    N        0.96251    0.60935    0.13909    1.000
    N5718    N        0.94135    0.54999    0.20419    1.000
    Si5719   Si       0.95557    0.54979    0.24414    1.000
    N5720    N        0.95115    0.73464    0.16073    1.000
    Si5721   Si       0.94359    0.68448    0.23260    1.000
    Si5722   Si       0.98546    0.71363    0.17623    1.000
    Si5723   Si       0.95334    0.70304    0.12002    1.000
    N5724    N        0.98376    0.69473    0.21475    1.000
    Si5725   Si       0.95569    0.61694    0.28310    1.000
    Si5726   Si       0.97637    0.62216    0.34111    1.000
    N5727    N        0.93640    0.62179    0.32315    1.000
    N5728    N        0.95284    0.51759    0.33346    1.000
    N5729    N        0.98480    0.57986    0.35722    1.000
    N5730    N        0.93613    0.58298    0.26572    1.000
    N5731    N        0.95077    0.51208    0.26358    1.000
    Si5732   Si       0.97778    0.51100    0.29772    1.000
    Si5733   Si       0.96507    0.54150    0.37072    1.000
    N5734    N        0.95125    0.65187    0.26000    1.000
    Si5735   Si       0.97050    0.69877    0.31951    1.000
    Si5736   Si       0.96380    0.74659    0.26273    1.000
    N5737    N        0.98357    0.73007    0.34656    1.000
    N5738    N        0.98703    0.71344    0.28216    1.000
    Si5739   Si       0.96377    0.62201    0.46272    1.000
    N5740    N        0.94587    0.58233    0.46696    1.000
    Si5741   Si       0.94910    0.55271    0.43557    1.000
    N5742    N        0.95513    0.51796    0.45977    1.000
    N5743    N        0.93065    0.53824    0.39842    1.000
    N5744    N        0.97331    0.63379    0.38430    1.000
    N5745    N        0.93826    0.65153    0.44161    1.000
    N5746    N        0.93540    0.69595    0.38659    1.000
    N5747    N        0.96466    0.71876    0.46620    1.000
    Si5748   Si       0.96139    0.66733    0.40725    1.000
    Si5749   Si       0.95184    0.73486    0.37651    1.000
    N5750    N        0.95804    0.59212    0.60229    1.000
    Si5751   Si       0.95228    0.57073    0.50942    1.000
    N5752    N        0.93538    0.53249    0.52409    1.000
    Si5753   Si       0.94531    0.55720    0.62558    1.000
    N5754    N        0.97580    0.63615    0.50406    1.000
    Si5755   Si       0.94419    0.68472    0.59924    1.000
    N5756    N        0.95204    0.69864    0.52616    1.000
    Si5757   Si       0.94238    0.65453    0.52516    1.000
    N5758    N        0.98437    0.70368    0.60459    1.000
    Si5759   Si       0.93636    0.73528    0.54897    1.000
    N5760    N        0.94178    0.65240    0.57006    1.000
    Si5761   Si       0.98599    0.71636    0.50371    1.000
    Si5762   Si       0.94984    0.55449    0.73046    1.000
    N5763    N        0.97672    0.52251    0.71581    1.000
    N5764    N        0.97746    0.53808    0.64883    1.000
    N5765    N        0.95283    0.63115    0.69494    1.000
    N5766    N        0.97829    0.74494    0.71792    1.000
    N5767    N        0.93685    0.69132    0.71808    1.000
    N5768    N        0.97487    0.75561    0.65328    1.000
    Si5769   Si       0.95288    0.67296    0.68064    1.000
    N5770    N        0.93178    0.67402    0.64103    1.000
    Si5771   Si       0.93893    0.73480    0.72818    1.000
    Si5772   Si       0.95533    0.53730    0.84679    1.000
    Si5773   Si       0.96330    0.60812    0.78323    1.000
    N5774    N        0.98559    0.60414    0.82102    1.000
    N5775    N        0.97408    0.58597    0.74688    1.000
    N5776    N        0.93008    0.53212    0.76224    1.000
    Si5777   Si       0.97447    0.63344    0.85077    1.000
    N5778    N        0.96339    0.64681    0.76368    1.000
    Si5779   Si       0.95201    0.75315    0.85369    1.000
    N5780    N        0.93258    0.74142    0.77002    1.000
    N5781    N        0.93156    0.64321    0.84777    1.000
    N5782    N        0.94871    0.52766    0.97797    1.000
    N5783    N        0.95405    0.56566    0.88072    1.000
    Si5784   Si       0.96727    0.56479    0.96337    1.000
    N5785    N        0.93238    0.58810    0.94457    1.000
    N5786    N        0.95233    0.68615    0.89595    1.000
    Si5787   Si       0.98851    0.75453    0.92161    1.000
    N5788    N        0.95116    0.74257    0.94117    1.000
    Si5789   Si       0.94757    0.70021    0.93580    1.000
    N5790    N        0.98442    0.73961    0.88055    1.000
    N5791    N        0.97764    0.68371    0.96047    1.000
    Si5792   Si       0.94775    0.84109    0.08956    1.000
    Si5793   Si       0.95281    0.79316    0.03620    1.000
    N5794    N        0.98118    0.82127    0.11061    1.000
    N5795    N        0.95356    0.87976    0.07142    1.000
    N5796    N        0.94673    0.79605    0.99371    1.000
    Si5797   Si       0.97286    0.90351    0.03802    1.000
    Si5798   Si       0.97807    0.95703    0.08733    1.000
    N5799    N        0.94091    0.97147    0.06799    1.000
    Si5800   Si       0.93517    0.97941    0.02751    1.000
    N5801    N        0.93365    0.91094    0.02206    1.000
    N5802    N        0.95067    0.93450    0.11856    1.000
    Si5803   Si       0.94191    0.89430    0.13654    1.000
    Si5804   Si       0.96203    0.80083    0.21683    1.000
    N5805    N        0.95718    0.81447    0.17512    1.000
    N5806    N        0.98378    0.76385    0.22742    1.000
    N5807    N        0.98213    0.88010    0.14263    1.000
    N5808    N        0.98740    0.83168    0.23207    1.000
    Si5809   Si       0.98533    0.83720    0.14935    1.000
    N5810    N        0.94174    0.88246    0.23982    1.000
    Si5811   Si       0.95770    0.94657    0.16196    1.000
    N5812    N        0.92872    0.91145    0.17449    1.000
    N5813    N        0.98867    0.94147    0.24007    1.000
    Si5814   Si       0.94876    0.92535    0.24711    1.000
    N5815    N        0.96198    0.83867    0.29992    1.000
    Si5816   Si       0.97331    0.86009    0.26288    1.000
    N5817    N        0.95127    0.77352    0.29625    1.000
    N5818    N        0.97293    0.80205    0.36260    1.000
    Si5819   Si       0.97710    0.80020    0.31757    1.000
    N5820    N        0.95643    0.92728    0.29054    1.000
    N5821    N        0.96205    0.93715    0.35577    1.000
    N5822    N        0.97644    0.00396    0.32503    1.000
    N5823    N        0.97025    0.86994    0.37752    1.000
    Si5824   Si       0.94976    0.83295    0.37876    1.000
    Si5825   Si       0.95346    0.84405    0.45534    1.000
    N5826    N        0.94424    0.82113    0.41939    1.000
    Si5827   Si       0.93672    0.77831    0.41666    1.000
    N5828    N        0.98469    0.82385    0.47881    1.000
    N5829    N        0.97626    0.88190    0.45163    1.000
    N5830    N        0.97462    0.75708    0.40794    1.000
    Si5831   Si       0.94739    0.91421    0.44892    1.000
    Si5832   Si       0.97622    0.91168    0.38929    1.000
    N5833    N        0.97311    0.00672    0.41777    1.000
    N5834    N        0.93787    0.91919    0.49127    1.000
    N5835    N        0.97589    0.93739    0.42407    1.000
    N5836    N        0.95871    0.86737    0.59486    1.000
    Si5837   Si       0.96025    0.85437    0.55464    1.000
    N5838    N        0.94430    0.77079    0.57332    1.000
    N5839    N        0.98957    0.82104    0.55640    1.000
    Si5840   Si       0.98494    0.77821    0.55763    1.000
    N5841    N        0.98156    0.75743    0.52058    1.000
    N5842    N        0.98326    0.87837    0.52486    1.000
    Si5843   Si       0.96936    0.96000    0.58174    1.000
    N5844    N        0.94451    0.93515    0.55715    1.000
    Si5845   Si       0.97004    0.92214    0.52318    1.000
    N5846    N        0.94585    0.98440    0.61085    1.000
    N5847    N        0.97360    0.97632    0.49876    1.000
    N5848    N        0.98989    0.93211    0.61051    1.000
    Si5849   Si       0.93626    0.84325    0.62363    1.000
    N5850    N        0.96322    0.85931    0.70916    1.000
    Si5851   Si       0.94237    0.78142    0.66810    1.000
    N5852    N        0.95660    0.82071    0.65480    1.000
    Si5853   Si       0.98802    0.83969    0.67652    1.000
    N5854    N        0.96793    0.94608    0.68251    1.000
    N5855    N        0.96740    0.77533    0.81864    1.000
    Si5856   Si       0.93670    0.78167    0.78721    1.000
    N5857    N        0.93908    0.80840    0.75302    1.000
    Si5858   Si       0.95298    0.84856    0.75136    1.000
    Si5859   Si       0.94726    0.86965    0.87131    1.000
    N5860    N        0.98741    0.86913    0.85336    1.000
    N5861    N        0.98709    0.85616    0.77687    1.000
    N5862    N        0.98112    0.95637    0.84731    1.000
    Si5863   Si       0.94254    0.93532    0.84228    1.000
    N5864    N        0.94910    0.90554    0.81023    1.000
    Si5865   Si       0.94048    0.91653    0.76982    1.000
    N5866    N        0.97338    0.94047    0.75498    1.000
    N5867    N        0.93435    0.78690    0.87732    1.000
    N5868    N        0.93932    0.84924    0.90988    1.000
    Si5869   Si       0.94251    0.80624    0.91442    1.000
    Si5870   Si       0.94220    0.87687    0.94334    1.000
    N5871    N        0.98435    0.79781    0.92399    1.000
    N5872    N        0.98467    0.87058    0.95011    1.000
    Si5873   Si       0.98581    0.93499    0.88657    1.000
    N5874    N        0.94278    0.91342    0.87957    1.000
    N5875    N        0.93520    0.91926    0.95249    1.000
    Si5876   Si       0.96835    0.94667    0.96211    1.000
    N5877    N        0.96329    0.97561    0.99483    1.000
    N5878    N        0.97252    0.95895    0.92167    1.000
    Si5879   Si       0.95699    0.99900    0.90972    1.000
