# CIF file generated by openbabel 3.1.1, see https://openbabel.org
data_I
_chemical_name_common '3.01-77.aims'
_cell_length_a 39.7709
_cell_length_b 39.7709
_cell_length_c 39.7709
_cell_angle_alpha 90
_cell_angle_beta 90
_cell_angle_gamma 90
loop_
    _atom_site_label
    _atom_site_type_symbol
    _atom_site_fract_x
    _atom_site_fract_y
    _atom_site_fract_z
    _atom_site_occupancy
    N0       N        0.00392    0.05098    0.04667    1.000
    N1       N        0.06022    0.01863    0.01763    1.000
    N2       N        0.11118    0.10826    0.00384    1.000
    Si3      Si       0.99989    0.13140    0.02835    1.000
    N4       N        0.03395    0.12306    0.00270    1.000
    Si5      Si       0.03778    0.02722    0.05670    1.000
    N6       N        0.15141    0.04211    0.03159    1.000
    N7       N        0.17914    0.09981    0.02591    1.000
    Si8      Si       0.21293    0.07116    0.03303    1.000
    Si9      Si       0.13790    0.08411    0.02880    1.000
    N10      N        0.22142    0.04608    0.99833    1.000
    Si11     Si       0.99609    0.20226    0.05288    1.000
    N12      N        0.08743    0.23907    0.01757    1.000
    N13      N        0.07935    0.16589    0.02490    1.000
    Si14     Si       0.10904    0.25191    0.05454    1.000
    N15      N        0.99080    0.24638    0.04817    1.000
    N16      N        0.99201    0.17544    0.01847    1.000
    Si17     Si       0.08100    0.20058    0.00029    1.000
    Si18     Si       0.18140    0.25531    0.04809    1.000
    Si19     Si       0.18475    0.14076    0.03615    1.000
    N20      N        0.14433    0.15203    0.04632    1.000
    Si21     Si       0.11769    0.15321    0.01206    1.000
    N22      N        0.17019    0.25963    0.00636    1.000
    Si23     Si       0.22809    0.19930    0.02412    1.000
    N24      N        0.20189    0.17147    0.00801    1.000
    Si25     Si       0.10295    0.06331    0.09183    1.000
    N26      N        0.06860    0.05559    0.07089    1.000
    Si27     Si       0.99951    0.11546    0.10523    1.000
    N28      N        0.01815    0.13254    0.06791    1.000
    N29      N        0.12707    0.02719    0.09782    1.000
    N30      N        0.12702    0.08973    0.06874    1.000
    Si31     Si       0.16426    0.02783    0.07083    1.000
    N32      N        0.20583    0.04417    0.06899    1.000
    Si33     Si       0.12847    0.13212    0.08308    1.000
    Si34     Si       0.24068    0.01605    0.07103    1.000
    Si35     Si       0.21556    0.04952    0.11707    1.000
    N36      N        0.08620    0.13844    0.09226    1.000
    Si37     Si       0.05344    0.21930    0.10402    1.000
    N38      N        0.09153    0.23335    0.08926    1.000
    Si39     Si       0.05610    0.15717    0.06360    1.000
    N40      N        0.03580    0.19643    0.07012    1.000
    N41      N        0.03160    0.25583    0.10863    1.000
    Si42     Si       0.23897    0.24139    0.09007    1.000
    Si43     Si       0.13187    0.22521    0.10738    1.000
    N44      N        0.21220    0.14252    0.07223    1.000
    N45      N        0.14877    0.23394    0.06712    1.000
    N46      N        0.15919    0.13463    0.11364    1.000
    N47      N        0.21534    0.22758    0.05545    1.000
    Si48     Si       0.02356    0.07509    0.16076    1.000
    N49      N        0.09747    0.07976    0.13167    1.000
    Si50     Si       0.07448    0.11639    0.12694    1.000
    N51      N        0.03440    0.10144    0.12752    1.000
    N52      N        0.99657    0.04649    0.14243    1.000
    Si53     Si       0.10082    0.06240    0.17090    1.000
    Si54     Si       0.99896    0.00839    0.12247    1.000
    Si55     Si       0.23814    0.08513    0.16258    1.000
    N56      N        0.18549    0.01884    0.12561    1.000
    N57      N        0.21390    0.09194    0.12482    1.000
    Si58     Si       0.14272    0.01307    0.13589    1.000
    N59      N        0.13045    0.02901    0.17292    1.000
    Si60     Si       0.20346    0.13255    0.11398    1.000
    N61      N        0.08371    0.14027    0.16358    1.000
    Si62     Si       0.01487    0.20890    0.16795    1.000
    Si63     Si       0.08109    0.18369    0.16217    1.000
    N64      N        0.04604    0.19613    0.13996    1.000
    N65      N        0.11515    0.19673    0.13786    1.000
    Si66     Si       0.14942    0.16999    0.13777    1.000
    N67      N        0.23689    0.14980    0.14044    1.000
    Si68     Si       0.18207    0.23633    0.14275    1.000
    N69      N        0.22095    0.24894    0.12896    1.000
    N70      N        0.17504    0.19989    0.11976    1.000
    N71      N        0.14579    0.25869    0.13366    1.000
    Si72     Si       0.04615    0.04147    0.21892    1.000
    N73      N        0.05923    0.05654    0.18191    1.000
    N74      N        0.00105    0.10181    0.18687    1.000
    N75      N        0.01532    0.01201    0.20926    1.000
    Si76     Si       0.99356    0.09460    0.22850    1.000
    Si77     Si       0.11705    0.13236    0.19419    1.000
    N78      N        0.12272    0.08942    0.19755    1.000
    Si79     Si       0.21554    0.05183    0.21067    1.000
    N80      N        0.22567    0.09434    0.20434    1.000
    Si81     Si       0.15261    0.01496    0.20798    1.000
    N82      N        0.17355    0.05040    0.22507    1.000
    Si83     Si       0.21430    0.12748    0.23071    1.000
    N84      N        0.22454    0.04466    0.16759    1.000
    Si85     Si       0.06380    0.23897    0.21105    1.000
    N86      N        0.00972    0.17426    0.19581    1.000
    N87      N        0.07898    0.19923    0.20439    1.000
    N88      N        0.03265    0.24687    0.18097    1.000
    N89      N        0.09658    0.26384    0.22668    1.000
    N90      N        0.14946    0.15718    0.17965    1.000
    Si91     Si       0.19877    0.25284    0.21263    1.000
    N92      N        0.18326    0.22085    0.18504    1.000
    N93      N        0.21700    0.16419    0.20675    1.000
    Si94     Si       0.17831    0.18288    0.20309    1.000
    N95      N        0.02839    0.07428    0.24425    1.000
    Si96     Si       0.10301    0.02980    0.26789    1.000
    N97      N        0.06449    0.01650    0.25023    1.000
    Si98     Si       0.03005    0.08098    0.28966    1.000
    N99      N        0.99457    0.01371    0.27196    1.000
    N100     N        0.11476    0.07252    0.26604    1.000
    Si101    Si       0.14482    0.08244    0.23506    1.000
    N102     N        0.17255    0.11747    0.24196    1.000
    N103     N        0.23721    0.03476    0.24520    1.000
    Si104    Si       0.22203    0.04551    0.28662    1.000
    N105     N        0.04211    0.16638    0.26157    1.000
    Si106    Si       0.08125    0.18053    0.24459    1.000
    N107     N        0.04372    0.24010    0.25154    1.000
    N108     N        0.09978    0.20486    0.27414    1.000
    Si109    Si       0.00570    0.23551    0.27080    1.000
    N110     N        0.10529    0.14622    0.23573    1.000
    Si111    Si       0.00360    0.17085    0.23904    1.000
    N112     N        0.23059    0.19470    0.28813    1.000
    N113     N        0.16455    0.18210    0.24468    1.000
    Si114    Si       0.14407    0.14697    0.25871    1.000
    N115     N        0.20604    0.23981    0.25242    1.000
    Si116    Si       0.18878    0.20428    0.27337    1.000
    Si117    Si       0.08004    0.04281    0.33161    1.000
    N118     N        0.04464    0.04667    0.30848    1.000
    N119     N        0.10477    0.07741    0.33381    1.000
    Si120    Si       0.09764    0.10457    0.29808    1.000
    N121     N        0.10780    0.01571    0.30976    1.000
    N122     N        0.05576    0.11535    0.30031    1.000
    Si123    Si       0.15157    0.02720    0.32102    1.000
    Si124    Si       0.19679    0.09267    0.32559    1.000
    N125     N        0.18290    0.05533    0.30663    1.000
    N126     N        0.04406    0.16791    0.34442    1.000
    N127     N        0.00470    0.23455    0.31391    1.000
    Si128    Si       0.03585    0.15327    0.30372    1.000
    N129     N        0.10203    0.21369    0.34413    1.000
    N130     N        0.99121    0.15743    0.30780    1.000
    N131     N        0.19489    0.13488    0.30859    1.000
    Si132    Si       0.23433    0.15145    0.29649    1.000
    N133     N        0.12930    0.13460    0.29701    1.000
    Si134    Si       0.17470    0.21416    0.34938    1.000
    N135     N        0.16431    0.21134    0.30652    1.000
    Si136    Si       0.15683    0.14224    0.32979    1.000
    Si137    Si       0.12236    0.22159    0.30513    1.000
    Si138    Si       0.00839    0.09067    0.39529    1.000
    N139     N        0.07470    0.02930    0.37226    1.000
    Si140    Si       0.07782    0.06167    0.40311    1.000
    N141     N        0.99825    0.04941    0.39187    1.000
    N142     N        0.99969    0.11766    0.36243    1.000
    N143     N        0.04993    0.09446    0.40768    1.000
    N144     N        0.11731    0.08117    0.40553    1.000
    Si145    Si       0.13491    0.07468    0.36635    1.000
    N146     N        0.15143    0.03404    0.36458    1.000
    N147     N        0.22484    0.09163    0.35857    1.000
    Si148    Si       0.22322    0.09331    0.40248    1.000
    N149     N        0.16120    0.10514    0.35125    1.000
    Si150    Si       0.07388    0.19028    0.36658    1.000
    Si151    Si       0.01009    0.16072    0.37265    1.000
    N152     N        0.09385    0.15861    0.39002    1.000
    N153     N        0.05421    0.21816    0.39551    1.000
    Si154    Si       0.04991    0.26078    0.39043    1.000
    N155     N        0.15339    0.25163    0.35452    1.000
    Si156    Si       0.13550    0.17166    0.39903    1.000
    Si157    Si       0.21979    0.22514    0.40864    1.000
    N158     N        0.15855    0.17414    0.36048    1.000
    N159     N        0.21477    0.22249    0.36534    1.000
    Si160    Si       0.11688    0.24065    0.37678    1.000
    N161     N        0.13422    0.21529    0.40896    1.000
    N162     N        0.07065    0.04658    0.44237    1.000
    N163     N        0.08398    0.12722    0.45270    1.000
    N164     N        0.00496    0.02400    0.45746    1.000
    Si165    Si       0.06252    0.08731    0.45988    1.000
    Si166    Si       0.06653    0.13564    0.41342    1.000
    N167     N        0.18714    0.01154    0.43544    1.000
    Si168    Si       0.21284    0.05114    0.44384    1.000
    Si169    Si       0.14779    0.09823    0.43193    1.000
    N170     N        0.18578    0.07610    0.41846    1.000
    N171     N        0.22623    0.08684    0.46695    1.000
    Si172    Si       0.00452    0.13745    0.44915    1.000
    N173     N        0.00966    0.22489    0.45140    1.000
    Si174    Si       0.03712    0.19836    0.43150    1.000
    N175     N        0.02714    0.15898    0.41454    1.000
    N176     N        0.19237    0.19580    0.42746    1.000
    N177     N        0.22871    0.13441    0.41660    1.000
    Si178    Si       0.16389    0.22749    0.43677    1.000
    Si179    Si       0.19496    0.15322    0.43771    1.000
    N180     N        0.15539    0.14019    0.42264    1.000
    N181     N        0.19150    0.25807    0.41969    1.000
    N182     N        0.08313    0.07468    0.49759    1.000
    Si183    Si       0.99679    0.09466    0.50871    1.000
    N184     N        0.02364    0.10686    0.47524    1.000
    Si185    Si       0.12472    0.06019    0.49959    1.000
    Si186    Si       0.19209    0.10413    0.48748    1.000
    N187     N        0.15093    0.08720    0.47649    1.000
    N188     N        0.12608    0.02437    0.47504    1.000
    N189     N        0.18017    0.01291    0.51011    1.000
    N190     N        0.23456    0.02260    0.47192    1.000
    N191     N        0.14492    0.13236    0.53151    1.000
    N192     N        0.07481    0.13729    0.52250    1.000
    N193     N        0.04355    0.25450    0.49756    1.000
    Si194    Si       0.02781    0.21257    0.49702    1.000
    Si195    Si       0.08628    0.15712    0.48473    1.000
    N196     N        0.11139    0.24502    0.52467    1.000
    N197     N        0.05267    0.18608    0.47228    1.000
    Si198    Si       0.15848    0.16139    0.50545    1.000
    Si199    Si       0.13802    0.21860    0.50276    1.000
    N200     N        0.18975    0.14666    0.47993    1.000
    N201     N        0.12386    0.18032    0.48773    1.000
    N202     N        0.15206    0.24757    0.47261    1.000
    N203     N        0.17094    0.20012    0.52516    1.000
    N204     N        0.08323    0.09025    0.56732    1.000
    Si205    Si       0.01948    0.03529    0.54983    1.000
    Si206    Si       0.09823    0.04703    0.57336    1.000
    N207     N        0.05940    0.02807    0.56102    1.000
    N208     N        0.02425    0.07701    0.53684    1.000
    Si209    Si       0.11009    0.12621    0.55828    1.000
    N210     N        0.02681    0.13094    0.58262    1.000
    Si211    Si       0.06223    0.09597    0.52870    1.000
    Si212    Si       0.15638    0.00931    0.54460    1.000
    Si213    Si       0.22567    0.07393    0.55232    1.000
    Si214    Si       0.17914    0.12014    0.56505    1.000
    N215     N        0.12980    0.04411    0.54173    1.000
    N216     N        0.23854    0.03533    0.53934    1.000
    N217     N        0.19676    0.08064    0.58528    1.000
    N218     N        0.20042    0.09971    0.52859    1.000
    N219     N        0.03801    0.19522    0.53749    1.000
    N220     N        0.05214    0.25354    0.56829    1.000
    Si221    Si       0.05575    0.16037    0.55462    1.000
    Si222    Si       0.02870    0.21763    0.57142    1.000
    N223     N        0.09291    0.16102    0.57810    1.000
    N224     N        0.19878    0.15726    0.57822    1.000
    Si225    Si       0.19777    0.19805    0.56041    1.000
    N226     N        0.23855    0.20948    0.55595    1.000
    N227     N        0.02429    0.06752    0.61143    1.000
    N228     N        0.07722    0.10797    0.63175    1.000
    Si229    Si       0.05162    0.09779    0.59811    1.000
    Si230    Si       0.02917    0.03129    0.63651    1.000
    Si231    Si       0.10916    0.02796    0.63712    1.000
    Si232    Si       0.12012    0.10214    0.62371    1.000
    N233     N        0.12597    0.06047    0.61154    1.000
    Si234    Si       0.16866    0.05397    0.60579    1.000
    N235     N        0.14353    0.11847    0.59073    1.000
    N236     N        0.23840    0.12964    0.63152    1.000
    N237     N        0.23181    0.01414    0.61868    1.000
    N238     N        0.17207    0.01438    0.58486    1.000
    Si239    Si       0.01711    0.16220    0.61930    1.000
    N240     N        0.04355    0.19133    0.60296    1.000
    N241     N        0.10334    0.22534    0.60294    1.000
    Si242    Si       0.08639    0.18693    0.61107    1.000
    Si243    Si       0.07545    0.25852    0.60447    1.000
    N244     N        0.05406    0.25915    0.64461    1.000
    Si245    Si       0.14340    0.23968    0.59931    1.000
    Si246    Si       0.21234    0.16336    0.61947    1.000
    N247     N        0.18277    0.22181    0.59329    1.000
    Si248    Si       0.19277    0.22325    0.63820    1.000
    N249     N        0.15417    0.24792    0.64108    1.000
    N250     N        0.17784    0.17885    0.64614    1.000
    N251     N        0.00882    0.03880    0.67449    1.000
    Si252    Si       0.01803    0.12754    0.69510    1.000
    N253     N        0.06183    0.11388    0.69955    1.000
    N254     N        0.06943    0.03026    0.65100    1.000
    Si255    Si       0.07458    0.13675    0.66369    1.000
    Si256    Si       0.23688    0.10908    0.66822    1.000
    N257     N        0.14064    0.11800    0.65722    1.000
    Si258    Si       0.16542    0.08637    0.67551    1.000
    N259     N        0.19809    0.10802    0.68908    1.000
    Si260    Si       0.21960    0.03491    0.65524    1.000
    Si261    Si       0.16224    0.01855    0.69069    1.000
    N262     N        0.18240    0.05530    0.64873    1.000
    N263     N        0.99538    0.19952    0.64768    1.000
    Si264    Si       0.02044    0.23567    0.66182    1.000
    N265     N        0.02953    0.14441    0.65695    1.000
    N266     N        0.03247    0.22313    0.70214    1.000
    N267     N        0.09988    0.16915    0.65028    1.000
    Si268    Si       0.14103    0.16575    0.66643    1.000
    Si269    Si       0.06228    0.08746    0.73372    1.000
    N270     N        0.04993    0.04568    0.73614    1.000
    N271     N        0.10356    0.08441    0.74784    1.000
    Si272    Si       0.99725    0.10054    0.75755    1.000
    N273     N        0.99543    0.09476    0.71265    1.000
    Si274    Si       0.02359    0.02165    0.70922    1.000
    Si275    Si       0.21537    0.11927    0.72766    1.000
    Si276    Si       0.13056    0.04682    0.74285    1.000
    N277     N        0.21646    0.09157    0.75945    1.000
    N278     N        0.14779    0.05862    0.70380    1.000
    Si279    Si       0.10490    0.26000    0.75373    1.000
    N280     N        0.09035    0.22031    0.74046    1.000
    Si281    Si       0.04770    0.21844    0.74072    1.000
    N282     N        0.99934    0.16063    0.71411    1.000
    N283     N        0.09555    0.15324    0.76502    1.000
    N284     N        0.20953    0.22308    0.75502    1.000
    N285     N        0.14903    0.25334    0.74356    1.000
    Si286    Si       0.11874    0.18515    0.74376    1.000
    Si287    Si       0.23778    0.25879    0.75321    1.000
    N288     N        0.13670    0.16979    0.70848    1.000
    N289     N        0.20809    0.15922    0.74242    1.000
    Si290    Si       0.23557    0.19135    0.73948    1.000
    Si291    Si       0.09905    0.04881    0.81110    1.000
    N292     N        0.10134    0.09384    0.81289    1.000
    N293     N        0.10343    0.02486    0.77329    1.000
    Si294    Si       0.11441    0.11636    0.77623    1.000
    N295     N        0.03908    0.11273    0.76155    1.000
    Si296    Si       0.18271    0.08655    0.78618    1.000
    N297     N        0.16054    0.05276    0.77335    1.000
    N298     N        0.15632    0.12015    0.77611    1.000
    Si299    Si       0.15245    0.01801    0.80065    1.000
    N300     N        0.19373    0.01384    0.81837    1.000
    Si301    Si       0.05425    0.15197    0.77778    1.000
    Si302    Si       0.01555    0.22357    0.79537    1.000
    N303     N        0.02677    0.18823    0.76916    1.000
    N304     N        0.03632    0.25013    0.76780    1.000
    N305     N        0.05965    0.15046    0.82149    1.000
    N306     N        0.19538    0.16475    0.81171    1.000
    N307     N        0.14891    0.19282    0.77406    1.000
    N308     N        0.17566    0.25491    0.80941    1.000
    Si309    Si       0.17654    0.16055    0.77391    1.000
    Si310    Si       0.17042    0.22906    0.77312    1.000
    N311     N        0.04337    0.09279    0.85123    1.000
    Si312    Si       0.03882    0.05076    0.86052    1.000
    Si313    Si       0.07921    0.11614    0.84122    1.000
    Si314    Si       0.01107    0.11649    0.86787    1.000
    N315     N        0.99863    0.03938    0.84800    1.000
    N316     N        0.06557    0.02960    0.83290    1.000
    N317     N        0.13084    0.03157    0.83589    1.000
    Si318    Si       0.21862    0.04597    0.83405    1.000
    Si319    Si       0.19351    0.09218    0.87192    1.000
    Si320    Si       0.15339    0.02449    0.87182    1.000
    N321     N        0.17184    0.12953    0.87742    1.000
    N322     N        0.20136    0.08692    0.82752    1.000
    N323     N        0.19147    0.04800    0.87367    1.000
    N324     N        0.25290    0.02124    0.86341    1.000
    N325     N        0.09598    0.13445    0.87768    1.000
    N326     N        0.01760    0.16042    0.87516    1.000
    Si327    Si       0.01480    0.24141    0.87079    1.000
    N328     N        0.02745    0.21534    0.83594    1.000
    Si329    Si       0.04968    0.17990    0.85176    1.000
    N330     N        0.08510    0.19929    0.86989    1.000
    Si331    Si       0.19108    0.16229    0.85461    1.000
    Si332    Si       0.11907    0.17409    0.87626    1.000
    Si333    Si       0.17180    0.22809    0.84707    1.000
    N334     N        0.23264    0.16057    0.86705    1.000
    N335     N        0.21542    0.22797    0.84845    1.000
    N336     N        0.15526    0.18968    0.85877    1.000
    N337     N        0.05391    0.04880    0.90324    1.000
    N338     N        0.00848    0.10034    0.90945    1.000
    Si339    Si       0.02733    0.06714    0.93194    1.000
    Si340    Si       0.09006    0.02222    0.90911    1.000
    Si341    Si       0.09954    0.13095    0.92006    1.000
    N342     N        0.12936    0.03851    0.90656    1.000
    N343     N        0.22604    0.10258    0.90152    1.000
    N344     N        0.12970    0.10231    0.92947    1.000
    N345     N        0.22929    0.01866    0.92348    1.000
    Si346    Si       0.21392    0.00808    0.88525    1.000
    Si347    Si       0.15987    0.13360    0.91890    1.000
    Si348    Si       0.14172    0.06222    0.94025    1.000
    N349     N        0.03989    0.23387    0.90644    1.000
    Si350    Si       0.08028    0.23520    0.89242    1.000
    N351     N        0.11218    0.23568    0.92190    1.000
    N352     N        0.16867    0.25303    0.88442    1.000
    Si353    Si       0.21338    0.25514    0.89004    1.000
    N354     N        0.12862    0.16627    0.91916    1.000
    Si355    Si       0.06914    0.10410    0.98455    1.000
    N356     N        0.05586    0.06775    0.96551    1.000
    Si357    Si       0.07813    0.03279    0.97695    1.000
    N358     N        0.99795    0.03833    0.94436    1.000
    N359     N        0.06753    0.13291    0.94945    1.000
    N360     N        0.12120    0.04396    0.97369    1.000
    Si361    Si       0.20695    0.03389    0.95796    1.000
    N362     N        0.18630    0.06857    0.94407    1.000
    Si363    Si       0.21508    0.10367    0.94367    1.000
    Si364    Si       0.14774    0.01747    0.99731    1.000
    N365     N        0.04939    0.19726    0.96989    1.000
    Si366    Si       0.02751    0.22853    0.94920    1.000
    Si367    Si       0.03752    0.15629    0.97209    1.000
    N368     N        0.99569    0.15475    0.95719    1.000
    Si369    Si       0.18575    0.24916    0.96660    1.000
    N370     N        0.18851    0.13575    0.94973    1.000
    N371     N        0.23375    0.22832    0.98867    1.000
    Si372    Si       0.13209    0.20264    0.94449    1.000
    N373     N        0.11914    0.18758    0.98321    1.000
    Si374    Si       0.20195    0.17456    0.96406    1.000
    N375     N        0.17495    0.20787    0.95194    1.000
    N376     N        0.04387    0.28909    0.04098    1.000
    Si377    Si       0.02531    0.32818    0.03731    1.000
    Si378    Si       0.06367    0.27528    0.00613    1.000
    Si379    Si       0.05966    0.37981    0.01628    1.000
    N380     N        0.04365    0.36411    0.05326    1.000
    N381     N        0.09953    0.36655    0.00212    1.000
    N382     N        0.12407    0.29120    0.04219    1.000
    Si383    Si       0.14243    0.36486    0.01147    1.000
    N384     N        0.14741    0.35631    0.05475    1.000
    Si385    Si       0.13871    0.29037    0.99890    1.000
    Si386    Si       0.03939    0.44343    0.02009    1.000
    N387     N        0.05095    0.48239    0.00270    1.000
    N388     N        0.99713    0.44715    0.02917    1.000
    Si389    Si       0.16745    0.46112    0.04472    1.000
    N390     N        0.15097    0.47536    0.00624    1.000
    Si391    Si       0.20364    0.41589    0.00506    1.000
    N392     N        0.20694    0.45778    0.02529    1.000
    N393     N        0.20013    0.39781    0.05158    1.000
    Si394    Si       0.01645    0.27320    0.07255    1.000
    N395     N        0.99774    0.31150    0.08498    1.000
    Si396    Si       0.22682    0.31405    0.06939    1.000
    N397     N        0.22645    0.34681    0.09878    1.000
    Si398    Si       0.14846    0.31575    0.06999    1.000
    N399     N        0.18779    0.29465    0.06738    1.000
    N400     N        0.12998    0.32068    0.10811    1.000
    N401     N        0.09578    0.39178    0.09246    1.000
    Si402    Si       0.02778    0.50533    0.10856    1.000
    Si403    Si       0.05296    0.39547    0.08053    1.000
    Si404    Si       0.10216    0.43253    0.07550    1.000
    N405     N        0.02492    0.49962    0.06563    1.000
    N406     N        0.10269    0.45986    0.10865    1.000
    N407     N        0.06336    0.42868    0.05366    1.000
    N408     N        0.23847    0.48158    0.08509    1.000
    Si409    Si       0.16188    0.39423    0.07125    1.000
    Si410    Si       0.13489    0.48642    0.11344    1.000
    N411     N        0.14086    0.42970    0.05670    1.000
    N412     N        0.16966    0.47866    0.08701    1.000
    Si413    Si       0.20705    0.48489    0.11298    1.000
    N414     N        0.01856    0.30949    0.15572    1.000
    N415     N        0.09032    0.36442    0.15014    1.000
    Si416    Si       0.04057    0.27494    0.14773    1.000
    N417     N        0.08271    0.28260    0.14747    1.000
    Si418    Si       0.12447    0.29454    0.14276    1.000
    Si419    Si       0.19743    0.36254    0.13031    1.000
    N420     N        0.19582    0.33290    0.16012    1.000
    N421     N        0.15938    0.38217    0.11415    1.000
    Si422    Si       0.11990    0.36271    0.11636    1.000
    Si423    Si       0.05441    0.38904    0.15439    1.000
    N424     N        0.03566    0.46702    0.12780    1.000
    Si425    Si       0.00826    0.43484    0.12467    1.000
    Si426    Si       0.07404    0.45956    0.14421    1.000
    N427     N        0.03101    0.39864    0.11730    1.000
    N428     N        0.07182    0.42574    0.17187    1.000
    N429     N        0.08511    0.49271    0.17082    1.000
    Si430    Si       0.22170    0.42975    0.16792    1.000
    N431     N        0.21437    0.47107    0.15325    1.000
    N432     N        0.22273    0.39538    0.14076    1.000
    N433     N        0.14890    0.48913    0.15324    1.000
    N434     N        0.07067    0.32821    0.20740    1.000
    Si435    Si       0.02930    0.33153    0.19411    1.000
    Si436    Si       0.10326    0.34880    0.18881    1.000
    N437     N        0.02443    0.37413    0.18286    1.000
    N438     N        0.10833    0.38175    0.21728    1.000
    N439     N        0.00798    0.32592    0.23214    1.000
    N440     N        0.16609    0.28104    0.21692    1.000
    Si441    Si       0.17333    0.32155    0.19450    1.000
    Si442    Si       0.12515    0.29394    0.21944    1.000
    N443     N        0.13225    0.31658    0.17950    1.000
    N444     N        0.17333    0.35476    0.22210    1.000
    N445     N        0.23393    0.27138    0.19557    1.000
    Si446    Si       0.99176    0.50829    0.22540    1.000
    Si447    Si       0.09186    0.42117    0.21079    1.000
    N448     N        0.10634    0.50122    0.22686    1.000
    N449     N        0.23513    0.50369    0.20257    1.000
    Si450    Si       0.16415    0.44137    0.22539    1.000
    Si451    Si       0.12819    0.48609    0.19064    1.000
    N452     N        0.17022    0.48737    0.21446    1.000
    N453     N        0.12787    0.44366    0.20123    1.000
    N454     N        0.19665    0.42273    0.20360    1.000
    Si455    Si       0.19584    0.49978    0.18078    1.000
    Si456    Si       0.20126    0.38752    0.22999    1.000
    N457     N        0.05760    0.29930    0.27115    1.000
    Si458    Si       0.07851    0.33369    0.25165    1.000
    N459     N        0.06457    0.36866    0.27215    1.000
    Si460    Si       0.01504    0.30317    0.26960    1.000
    Si461    Si       0.08151    0.26114    0.26791    1.000
    N462     N        0.12054    0.32609    0.24827    1.000
    Si463    Si       0.13674    0.36973    0.24778    1.000
    N464     N        0.21969    0.38070    0.27224    1.000
    N465     N        0.23513    0.30910    0.25465    1.000
    Si466    Si       0.22137    0.29849    0.29386    1.000
    N467     N        0.03293    0.50819    0.24004    1.000
    Si468    Si       0.10303    0.47608    0.26225    1.000
    N469     N        0.01450    0.41898    0.26410    1.000
    Si470    Si       0.05596    0.41233    0.27256    1.000
    N471     N        0.08504    0.43910    0.24965    1.000
    N472     N        0.08252    0.50065    0.29164    1.000
    Si473    Si       0.23313    0.48520    0.28965    1.000
    N474     N        0.14582    0.48089    0.27846    1.000
    N475     N        0.16456    0.40853    0.25619    1.000
    Si476    Si       0.16581    0.50976    0.25283    1.000
    Si477    Si       0.08605    0.37449    0.31208    1.000
    N478     N        0.01896    0.36396    0.33845    1.000
    N479     N        0.00172    0.30699    0.30991    1.000
    Si480    Si       0.99380    0.27258    0.33529    1.000
    N481     N        0.08068    0.35343    0.34950    1.000
    N482     N        0.11599    0.26432    0.29566    1.000
    Si483    Si       0.22402    0.37258    0.31402    1.000
    N484     N        0.18354    0.37618    0.33020    1.000
    Si485    Si       0.14493    0.28267    0.32229    1.000
    N486     N        0.17944    0.29568    0.30289    1.000
    N487     N        0.13777    0.31521    0.35240    1.000
    N488     N        0.23500    0.33115    0.31935    1.000
    N489     N        0.12657    0.37553    0.29109    1.000
    N490     N        0.06530    0.41545    0.31522    1.000
    Si491    Si       0.07297    0.50833    0.33246    1.000
    Si492    Si       0.16248    0.39907    0.29948    1.000
    Si493    Si       0.16460    0.47041    0.31763    1.000
    N494     N        0.14854    0.43099    0.32815    1.000
    N495     N        0.20772    0.46341    0.31853    1.000
    Si496    Si       0.22604    0.43700    0.35054    1.000
    Si497    Si       0.04655    0.37043    0.37212    1.000
    N498     N        0.01587    0.27873    0.37105    1.000
    N499     N        0.08831    0.27410    0.37707    1.000
    Si500    Si       0.09787    0.31711    0.36979    1.000
    Si501    Si       0.01048    0.30898    0.40343    1.000
    N502     N        0.03205    0.34557    0.40389    1.000
    N503     N        0.10129    0.33201    0.40910    1.000
    N504     N        0.20175    0.31923    0.37981    1.000
    N505     N        0.15483    0.37166    0.39072    1.000
    Si506    Si       0.17151    0.34328    0.35924    1.000
    N507     N        0.05594    0.41179    0.38569    1.000
    Si508    Si       0.00581    0.48316    0.38808    1.000
    N509     N        0.08085    0.47329    0.35595    1.000
    N510     N        0.01123    0.45546    0.35360    1.000
    Si511    Si       0.05119    0.43929    0.35142    1.000
    N512     N        0.13162    0.43552    0.39259    1.000
    Si513    Si       0.11801    0.47528    0.37850    1.000
    N514     N        0.14991    0.49313    0.35368    1.000
    N515     N        0.19878    0.42692    0.38505    1.000
    Si516    Si       0.15964    0.41066    0.36907    1.000
    Si517    Si       0.07416    0.31189    0.43706    1.000
    N518     N        0.04203    0.28306    0.42950    1.000
    Si519    Si       0.03084    0.36561    0.44409    1.000
    Si520    Si       0.01946    0.26643    0.46325    1.000
    N521     N        0.05577    0.33824    0.46704    1.000
    N522     N        0.99068    0.36211    0.45742    1.000
    N523     N        0.10573    0.30006    0.46778    1.000
    Si524    Si       0.20014    0.30104    0.42015    1.000
    Si525    Si       0.13804    0.34965    0.42490    1.000
    N526     N        0.16397    0.31933    0.44121    1.000
    N527     N        0.12343    0.38018    0.45200    1.000
    N528     N        0.24191    0.30047    0.43890    1.000
    N529     N        0.11111    0.50489    0.41184    1.000
    N530     N        0.03614    0.40785    0.45304    1.000
    Si531    Si       0.10541    0.48872    0.45183    1.000
    Si532    Si       0.05571    0.43364    0.42346    1.000
    Si533    Si       0.02889    0.49489    0.45608    1.000
    N534     N        0.09291    0.44644    0.44315    1.000
    N535     N        0.03456    0.47227    0.42095    1.000
    Si536    Si       0.12652    0.42097    0.43403    1.000
    N537     N        0.16494    0.43003    0.45364    1.000
    Si538    Si       0.20115    0.43265    0.42908    1.000
    N539     N        0.21182    0.47352    0.43793    1.000
    N540     N        0.22292    0.39738    0.44694    1.000
    Si541    Si       0.08636    0.32612    0.49653    1.000
    N542     N        0.10273    0.36195    0.51497    1.000
    Si543    Si       0.20072    0.31513    0.52112    1.000
    N544     N        0.15924    0.30119    0.51119    1.000
    N545     N        0.22088    0.34091    0.49143    1.000
    N546     N        0.16987    0.37724    0.50906    1.000
    Si547    Si       0.14833    0.29010    0.46999    1.000
    N548     N        0.22649    0.28138    0.52460    1.000
    N549     N        0.05388    0.42491    0.52244    1.000
    Si550    Si       0.02355    0.42377    0.49088    1.000
    N551     N        0.01217    0.46609    0.48510    1.000
    Si552    Si       0.99714    0.48597    0.52022    1.000
    N553     N        0.07038    0.50161    0.47462    1.000
    Si554    Si       0.15945    0.45424    0.48966    1.000
    N555     N        0.23013    0.40479    0.52000    1.000
    Si556    Si       0.20886    0.38422    0.48754    1.000
    N557     N        0.12460    0.43122    0.50351    1.000
    N558     N        0.14006    0.49411    0.47949    1.000
    Si559    Si       0.12964    0.38803    0.49534    1.000
    N560     N        0.18698    0.45950    0.52255    1.000
    Si561    Si       0.23135    0.49789    0.46906    1.000
    N562     N        0.05467    0.36340    0.56357    1.000
    Si563    Si       0.09155    0.34413    0.55389    1.000
    Si564    Si       0.01631    0.34479    0.57098    1.000
    N565     N        0.09019    0.30330    0.53592    1.000
    N566     N        0.00020    0.33936    0.52755    1.000
    Si567    Si       0.07062    0.26250    0.53182    1.000
    N568     N        0.19443    0.33508    0.56220    1.000
    Si569    Si       0.16355    0.36568    0.55269    1.000
    N570     N        0.12971    0.34593    0.57438    1.000
    N571     N        0.14360    0.27701    0.57758    1.000
    Si572    Si       0.12924    0.28366    0.53792    1.000
    N573     N        0.09347    0.48582    0.53922    1.000
    Si574    Si       0.05825    0.40651    0.56262    1.000
    N575     N        0.09930    0.41952    0.56519    1.000
    Si576    Si       0.09300    0.44471    0.52859    1.000
    Si577    Si       0.23786    0.48225    0.58600    1.000
    N578     N        0.22944    0.43850    0.58303    1.000
    Si579    Si       0.11882    0.49927    0.57240    1.000
    Si580    Si       0.20231    0.42704    0.54740    1.000
    N581     N        0.16939    0.40466    0.56843    1.000
    Si582    Si       0.17633    0.49382    0.54772    1.000
    N583     N        0.15007    0.46778    0.57572    1.000
    Si584    Si       0.13620    0.42718    0.58600    1.000
    N585     N        0.09397    0.29814    0.60982    1.000
    Si586    Si       0.99626    0.30070    0.63687    1.000
    N587     N        0.00012    0.30966    0.59284    1.000
    N588     N        0.99675    0.37777    0.59315    1.000
    N589     N        0.20969    0.37942    0.62316    1.000
    Si590    Si       0.20448    0.33840    0.60532    1.000
    N591     N        0.17094    0.31626    0.62411    1.000
    Si592    Si       0.13396    0.31201    0.60190    1.000
    Si593    Si       0.00553    0.46512    0.59072    1.000
    Si594    Si       0.01289    0.40966    0.61839    1.000
    N595     N        0.02237    0.50206    0.60476    1.000
    N596     N        0.03549    0.43207    0.58980    1.000
    Si597    Si       0.10614    0.47370    0.63964    1.000
    N598     N        0.10622    0.50611    0.61285    1.000
    N599     N        0.12446    0.43502    0.62641    1.000
    N600     N        0.09632    0.31865    0.67473    1.000
    Si601    Si       0.03399    0.36294    0.66754    1.000
    N602     N        0.99230    0.36490    0.68183    1.000
    Si603    Si       0.06989    0.30079    0.64607    1.000
    N604     N        0.03404    0.32441    0.64741    1.000
    N605     N        0.98753    0.26561    0.65899    1.000
    N606     N        0.15306    0.37660    0.66750    1.000
    N607     N        0.21744    0.33777    0.67949    1.000
    Si608    Si       0.13458    0.33967    0.68653    1.000
    Si609    Si       0.19793    0.37421    0.66559    1.000
    N610     N        0.15887    0.30225    0.68943    1.000
    Si611    Si       0.17582    0.28310    0.65313    1.000
    N612     N        0.21269    0.26153    0.64880    1.000
    N613     N        0.06475    0.47130    0.65387    1.000
    N614     N        0.00559    0.50507    0.67713    1.000
    Si615    Si       0.05833    0.43402    0.67542    1.000
    N616     N        0.09888    0.41830    0.69002    1.000
    N617     N        0.04294    0.40004    0.64929    1.000
    Si618    Si       0.03431    0.50383    0.64652    1.000
    N619     N        0.12817    0.47703    0.67628    1.000
    N620     N        0.20876    0.39864    0.70124    1.000
    Si621    Si       0.15925    0.50493    0.67609    1.000
    N622     N        0.20036    0.49266    0.68573    1.000
    Si623    Si       0.12921    0.40943    0.65983    1.000
    N624     N        0.00921    0.31773    0.74318    1.000
    N625     N        0.07862    0.29211    0.73986    1.000
    Si626    Si       0.00684    0.35905    0.72534    1.000
    Si627    Si       0.07904    0.32701    0.71471    1.000
    N628     N        0.05158    0.36178    0.71020    1.000
    Si629    Si       0.08764    0.38809    0.71925    1.000
    Si630    Si       0.03897    0.29140    0.75958    1.000
    N631     N        0.11655    0.35501    0.72422    1.000
    N632     N        0.21579    0.28741    0.72693    1.000
    Si633    Si       0.17219    0.28842    0.72791    1.000
    Si634    Si       0.24132    0.31108    0.70257    1.000
    N635     N        0.18023    0.37604    0.76290    1.000
    Si636    Si       0.14371    0.35380    0.75875    1.000
    N637     N        0.00765    0.39506    0.75322    1.000
    N638     N        0.03201    0.44372    0.70845    1.000
    Si639    Si       0.03858    0.42655    0.74917    1.000
    N640     N        0.07499    0.40378    0.75775    1.000
    N641     N        0.10933    0.47836    0.74770    1.000
    Si642    Si       0.99799    0.47212    0.70728    1.000
    N643     N        0.16504    0.44390    0.72360    1.000
    Si644    Si       0.19331    0.41276    0.74092    1.000
    Si645    Si       0.12397    0.45366    0.71209    1.000
    N646     N        0.23256    0.44465    0.73287    1.000
    Si647    Si       0.19819    0.47437    0.72454    1.000
    N648     N        0.04730    0.30885    0.79935    1.000
    N649     N        0.10985    0.27448    0.79703    1.000
    N650     N        0.12242    0.36321    0.79599    1.000
    Si651    Si       0.15216    0.29099    0.80007    1.000
    N652     N        0.15886    0.31203    0.76257    1.000
    Si653    Si       0.01846    0.49469    0.77823    1.000
    N654     N        0.04665    0.46287    0.77543    1.000
    Si655    Si       0.09382    0.39751    0.79527    1.000
    Si656    Si       0.08954    0.46941    0.78782    1.000
    N657     N        0.99921    0.48701    0.81669    1.000
    Si658    Si       0.19614    0.38909    0.80170    1.000
    Si659    Si       0.15737    0.43864    0.81541    1.000
    Si660    Si       0.20387    0.47405    0.79540    1.000
    N661     N        0.11703    0.43403    0.80097    1.000
    N662     N        0.19673    0.43111    0.78618    1.000
    N663     N        0.19889    0.49980    0.76027    1.000
    N664     N        0.00892    0.34861    0.83811    1.000
    N665     N        0.08856    0.32634    0.84158    1.000
    N666     N        0.00278    0.27942    0.85472    1.000
    N667     N        0.07550    0.26757    0.86153    1.000
    Si668    Si       0.00644    0.31915    0.87076    1.000
    Si669    Si       0.05015    0.34510    0.82587    1.000
    Si670    Si       0.07744    0.28619    0.82113    1.000
    Si671    Si       0.21580    0.26521    0.82627    1.000
    Si672    Si       0.12559    0.34553    0.83573    1.000
    Si673    Si       0.20141    0.33156    0.84904    1.000
    N674     N        0.22133    0.29246    0.86157    1.000
    N675     N        0.16065    0.31956    0.83337    1.000
    N676     N        0.12593    0.36709    0.87569    1.000
    N677     N        0.22307    0.35815    0.82091    1.000
    N678     N        0.00757    0.41612    0.84857    1.000
    N679     N        0.06400    0.38700    0.82476    1.000
    Si680    Si       0.05192    0.41532    0.85377    1.000
    Si681    Si       0.08370    0.48508    0.85930    1.000
    N682     N        0.05274    0.45762    0.85020    1.000
    Si683    Si       0.01009    0.45959    0.84883    1.000
    N684     N        0.10290    0.49654    0.82036    1.000
    Si685    Si       0.16457    0.38951    0.87850    1.000
    N686     N        0.17028    0.40348    0.83730    1.000
    Si687    Si       0.23561    0.50503    0.88096    1.000
    N688     N        0.16798    0.47852    0.81984    1.000
    Si689    Si       0.04887    0.36980    0.91272    1.000
    N690     N        0.04450    0.33217    0.88762    1.000
    N691     N        0.08092    0.35305    0.93621    1.000
    N692     N        0.01154    0.37455    0.93264    1.000
    N693     N        0.11555    0.30380    0.90269    1.000
    Si694    Si       0.07923    0.30763    0.88108    1.000
    Si695    Si       0.11892    0.34558    0.91309    1.000
    Si696    Si       0.22982    0.36122    0.91026    1.000
    Si697    Si       0.13976    0.26816    0.91341    1.000
    N698     N        0.19522    0.36029    0.88272    1.000
    N699     N        0.21688    0.26135    0.93695    1.000
    N700     N        0.05003    0.46279    0.93418    1.000
    N701     N        0.10841    0.46799    0.89055    1.000
    Si702    Si       0.00708    0.46432    0.92697    1.000
    Si703    Si       0.08474    0.43951    0.91792    1.000
    N704     N        0.06429    0.40716    0.89763    1.000
    N705     N        0.99347    0.47335    0.88551    1.000
    N706     N        0.17586    0.48949    0.92497    1.000
    N707     N        0.17111    0.41849    0.91134    1.000
    N708     N        0.23028    0.46278    0.89740    1.000
    Si709    Si       0.19747    0.45023    0.92431    1.000
    Si710    Si       0.13492    0.49821    0.90906    1.000
    Si711    Si       0.08089    0.33688    0.97571    1.000
    N712     N        0.09593    0.29773    0.98401    1.000
    N713     N        0.03980    0.26350    0.97334    1.000
    N714     N        0.03989    0.34073    0.99463    1.000
    N715     N        0.15783    0.28338    0.95156    1.000
    Si716    Si       0.17590    0.32560    0.95538    1.000
    N717     N        0.21653    0.33177    0.94115    1.000
    N718     N        0.16063    0.32885    0.99472    1.000
    N719     N        0.15235    0.35994    0.93630    1.000
    Si720    Si       0.04301    0.49704    0.96229    1.000
    Si721    Si       0.00690    0.40328    0.96676    1.000
    N722     N        0.00167    0.50109    0.94998    1.000
    N723     N        0.04026    0.40941    0.99151    1.000
    N724     N        0.11338    0.50023    0.94702    1.000
    N725     N        0.11806    0.43210    0.95360    1.000
    N726     N        0.19982    0.44263    0.96546    1.000
    Si727    Si       0.19202    0.47837    0.98825    1.000
    Si728    Si       0.12158    0.46857    0.97692    1.000
    N729     N        0.16748    0.39482    0.99216    1.000
    Si730    Si       0.15292    0.40232    0.94954    1.000
    N731     N        0.24090    0.39568    0.00106    1.000
    Si732    Si       0.10239    0.57757    0.02414    1.000
    N733     N        0.01048    0.54156    0.00921    1.000
    N734     N        0.07695    0.54567    0.04277    1.000
    N735     N        0.09099    0.61798    0.01034    1.000
    Si736    Si       0.04355    0.51919    0.02840    1.000
    Si737    Si       0.99892    0.61041    0.04832    1.000
    N738     N        0.02154    0.63527    0.02213    1.000
    Si739    Si       0.17465    0.57985    0.03853    1.000
    N740     N        0.19685    0.61837    0.04349    1.000
    Si741    Si       0.22261    0.60137    0.01047    1.000
    N742     N        0.13474    0.58542    0.05467    1.000
    N743     N        0.19174    0.54546    0.05544    1.000
    Si744    Si       0.02281    0.67820    0.03100    1.000
    N745     N        0.06456    0.69429    0.02818    1.000
    N746     N        0.11470    0.74071    0.04602    1.000
    N747     N        0.98846    0.70137    0.01332    1.000
    Si748    Si       0.21389    0.72477    0.00838    1.000
    Si749    Si       0.19149    0.66099    0.05030    1.000
    N750     N        0.17103    0.73645    0.00876    1.000
    Si751    Si       0.14300    0.70965    0.03058    1.000
    N752     N        0.21216    0.68354    0.02216    1.000
    N753     N        0.24120    0.74121    0.03830    1.000
    Si754    Si       0.08888    0.54670    0.08629    1.000
    N755     N        0.01668    0.58733    0.07880    1.000
    N756     N        0.08671    0.58578    0.10367    1.000
    Si757    Si       0.04399    0.59755    0.11185    1.000
    N758     N        0.12796    0.52625    0.09580    1.000
    Si759    Si       0.12772    0.59992    0.09814    1.000
    Si760    Si       0.16933    0.54353    0.09181    1.000
    Si761    Si       0.22760    0.52386    0.06880    1.000
    N762     N        0.20786    0.52805    0.11213    1.000
    N763     N        0.16298    0.58002    0.11487    1.000
    N764     N        0.01336    0.68988    0.07386    1.000
    N765     N        0.09795    0.70017    0.09744    1.000
    N766     N        0.05385    0.74835    0.07627    1.000
    Si767    Si       0.01690    0.73099    0.09298    1.000
    Si768    Si       0.08042    0.71868    0.05950    1.000
    Si769    Si       0.17445    0.73782    0.10747    1.000
    N770     N        0.21491    0.66478    0.08603    1.000
    N771     N        0.15408    0.68077    0.05933    1.000
    Si772    Si       0.13536    0.67708    0.09803    1.000
    Si773    Si       0.22670    0.75474    0.07706    1.000
    N774     N        0.21680    0.72406    0.10741    1.000
    N775     N        0.01819    0.58068    0.14213    1.000
    Si776    Si       0.08247    0.53372    0.15353    1.000
    N777     N        0.06104    0.53082    0.11567    1.000
    N778     N        0.11761    0.55943    0.16574    1.000
    N779     N        0.08290    0.61756    0.17392    1.000
    N780     N        0.98944    0.52412    0.11791    1.000
    N781     N        0.23669    0.57768    0.15457    1.000
    Si782    Si       0.15737    0.56888    0.15689    1.000
    N783     N        0.07733    0.67950    0.16087    1.000
    N784     N        0.03366    0.71486    0.13051    1.000
    Si785    Si       0.07726    0.71312    0.13414    1.000
    N786     N        0.09090    0.75254    0.14603    1.000
    Si787    Si       0.08711    0.64271    0.13806    1.000
    Si788    Si       0.02410    0.67179    0.14106    1.000
    N789     N        0.04681    0.64087    0.11760    1.000
    Si790    Si       0.20850    0.68519    0.12378    1.000
    N791     N        0.16802    0.75783    0.14434    1.000
    N792     N        0.22121    0.65213    0.15123    1.000
    N793     N        0.16459    0.69524    0.12587    1.000
    Si794    Si       0.16272    0.70280    0.17000    1.000
    N795     N        0.12317    0.63902    0.11512    1.000
    Si796    Si       0.08971    0.58028    0.19457    1.000
    N797     N        0.06066    0.55095    0.18831    1.000
    N798     N        0.00053    0.52218    0.18321    1.000
    Si799    Si       0.00561    0.63130    0.21303    1.000
    Si800    Si       0.01700    0.56192    0.18040    1.000
    N801     N        0.99249    0.59000    0.20434    1.000
    Si802    Si       0.06405    0.51097    0.20965    1.000
    N803     N        0.04393    0.62862    0.23149    1.000
    Si804    Si       0.20786    0.57743    0.18709    1.000
    N805     N        0.22709    0.57261    0.22431    1.000
    N806     N        0.17265    0.60150    0.18407    1.000
    Si807    Si       0.16791    0.63395    0.21308    1.000
    Si808    Si       0.23920    0.53023    0.23610    1.000
    N809     N        0.18413    0.54150    0.17691    1.000
    N810     N        0.03159    0.76134    0.18534    1.000
    N811     N        0.08909    0.67490    0.22737    1.000
    Si812    Si       0.06399    0.65187    0.19762    1.000
    N813     N        0.02092    0.65580    0.18019    1.000
    Si814    Si       0.24159    0.73146    0.19500    1.000
    Si815    Si       0.12700    0.69314    0.22078    1.000
    N816     N        0.13261    0.72545    0.19378    1.000
    N817     N        0.21028    0.64037    0.22159    1.000
    N818     N        0.15284    0.66775    0.19388    1.000
    Si819    Si       0.22550    0.67107    0.19193    1.000
    N820     N        0.20334    0.70828    0.18318    1.000
    Si821    Si       0.06186    0.60121    0.26049    1.000
    Si822    Si       0.04502    0.52192    0.27915    1.000
    N823     N        0.04624    0.56618    0.28205    1.000
    N824     N        0.09556    0.58745    0.23716    1.000
    N825     N        0.00184    0.61784    0.28681    1.000
    N826     N        0.07210    0.63366    0.28931    1.000
    Si827    Si       0.19259    0.55707    0.28179    1.000
    Si828    Si       0.23079    0.60982    0.24639    1.000
    N829     N        0.21268    0.59535    0.28372    1.000
    N830     N        0.15870    0.55400    0.25220    1.000
    Si831    Si       0.13169    0.58789    0.26064    1.000
    N832     N        0.14933    0.62694    0.25059    1.000
    N833     N        0.21021    0.51748    0.26819    1.000
    Si834    Si       0.06198    0.66773    0.26194    1.000
    N835     N        0.02365    0.69305    0.24741    1.000
    Si836    Si       0.03922    0.72572    0.27564    1.000
    N837     N        0.05535    0.76261    0.25922    1.000
    N838     N        0.14840    0.69693    0.25779    1.000
    Si839    Si       0.15242    0.73337    0.27900    1.000
    N840     N        0.19251    0.73683    0.29377    1.000
    Si841    Si       0.15640    0.65992    0.28000    1.000
    Si842    Si       0.01590    0.58379    0.30861    1.000
    Si843    Si       0.10401    0.62458    0.31614    1.000
    N844     N        0.09190    0.54628    0.34405    1.000
    N845     N        0.03122    0.59589    0.34677    1.000
    Si846    Si       0.99429    0.52337    0.34043    1.000
    N847     N        0.03021    0.51365    0.31933    1.000
    N848     N        0.12598    0.59018    0.30182    1.000
    Si849    Si       0.13054    0.56185    0.33322    1.000
    Si850    Si       0.21581    0.62596    0.31444    1.000
    N851     N        0.17032    0.54646    0.31700    1.000
    Si852    Si       0.00895    0.74125    0.34079    1.000
    Si853    Si       0.10249    0.69579    0.31947    1.000
    N854     N        0.00347    0.72253    0.30174    1.000
    N855     N        0.07025    0.70025    0.29132    1.000
    N856     N        0.12701    0.73100    0.31513    1.000
    N857     N        0.23038    0.71776    0.34626    1.000
    Si858    Si       0.21686    0.70259    0.30745    1.000
    N859     N        0.12755    0.66086    0.31160    1.000
    N860     N        0.19657    0.66354    0.29953    1.000
    N861     N        0.01262    0.52630    0.38068    1.000
    Si862    Si       0.00374    0.61663    0.37296    1.000
    Si863    Si       0.06885    0.57917    0.36168    1.000
    N864     N        0.05915    0.56988    0.40446    1.000
    N865     N        0.09773    0.61239    0.35741    1.000
    N866     N        0.99224    0.59044    0.40344    1.000
    Si867    Si       0.17191    0.59870    0.38270    1.000
    N868     N        0.15070    0.55997    0.37516    1.000
    Si869    Si       0.23554    0.60748    0.37806    1.000
    Si870    Si       0.17455    0.52814    0.35573    1.000
    N871     N        0.20946    0.51409    0.37534    1.000
    N872     N        0.14960    0.63680    0.39269    1.000
    N873     N        0.20077    0.60901    0.35189    1.000
    N874     N        0.01637    0.65282    0.39946    1.000
    N875     N        0.09418    0.75355    0.36975    1.000
    Si876    Si       0.07019    0.71527    0.37965    1.000
    N877     N        0.02937    0.71230    0.36681    1.000
    Si878    Si       0.10855    0.64620    0.38101    1.000
    Si879    Si       0.99907    0.69312    0.39507    1.000
    N880     N        0.09550    0.68623    0.36235    1.000
    Si881    Si       0.07864    0.59899    0.43357    1.000
    N882     N        0.01180    0.53556    0.44890    1.000
    N883     N        0.04198    0.60275    0.45922    1.000
    Si884    Si       0.01903    0.55654    0.41077    1.000
    N885     N        0.11983    0.58155    0.43510    1.000
    N886     N        0.16930    0.53166    0.43318    1.000
    Si887    Si       0.23801    0.57052    0.43813    1.000
    N888     N        0.17255    0.63081    0.45958    1.000
    N889     N        0.23997    0.52912    0.43855    1.000
    Si890    Si       0.20442    0.51119    0.41766    1.000
    Si891    Si       0.13300    0.54376    0.41197    1.000
    N892     N        0.21182    0.58835    0.40876    1.000
    Si893    Si       0.02142    0.63665    0.44026    1.000
    N894     N        0.08254    0.63971    0.41453    1.000
    N895     N        0.06760    0.71379    0.42182    1.000
    Si896    Si       0.03635    0.73947    0.43767    1.000
    Si897    Si       0.08166    0.67555    0.44299    1.000
    N898     N        0.04033    0.66959    0.46293    1.000
    N899     N        0.99539    0.72420    0.42586    1.000
    N900     N        0.22247    0.74702    0.46373    1.000
    N901     N        0.17465    0.75858    0.42142    1.000
    Si902    Si       0.23594    0.67525    0.42344    1.000
    Si903    Si       0.16245    0.65863    0.42764    1.000
    N904     N        0.12675    0.67851    0.44366    1.000
    Si905    Si       0.18695    0.72486    0.44883    1.000
    N906     N        0.19388    0.68872    0.42677    1.000
    Si907    Si       0.04401    0.58430    0.49913    1.000
    N908     N        0.00138    0.57233    0.50461    1.000
    N909     N        0.07447    0.55497    0.51203    1.000
    N910     N        0.10608    0.62373    0.48435    1.000
    Si911    Si       0.06977    0.51334    0.51736    1.000
    N912     N        0.15397    0.57004    0.49290    1.000
    Si913    Si       0.22293    0.55996    0.50829    1.000
    N914     N        0.20273    0.52215    0.49446    1.000
    N915     N        0.22609    0.58808    0.47527    1.000
    Si916    Si       0.16328    0.53067    0.47830    1.000
    Si917    Si       0.21183    0.63000    0.48027    1.000
    Si918    Si       0.14072    0.60162    0.46767    1.000
    N919     N        0.08643    0.69481    0.49701    1.000
    N920     N        0.03243    0.73987    0.48184    1.000
    Si921    Si       0.04117    0.69792    0.49702    1.000
    Si922    Si       0.13015    0.69003    0.48640    1.000
    Si923    Si       0.16604    0.73427    0.52335    1.000
    N924     N        0.16095    0.72140    0.48299    1.000
    N925     N        0.21079    0.64318    0.52230    1.000
    N926     N        0.14081    0.66495    0.52081    1.000
    Si927    Si       0.07987    0.57887    0.54867    1.000
    Si928    Si       0.03049    0.53413    0.57318    1.000
    N929     N        0.99828    0.56329    0.57361    1.000
    N930     N        0.06696    0.55615    0.58293    1.000
    N931     N        0.03037    0.51176    0.53614    1.000
    N932     N        0.05569    0.61081    0.52952    1.000
    N933     N        0.20758    0.51109    0.57366    1.000
    N934     N        0.12035    0.59698    0.54738    1.000
    N935     N        0.14521    0.52713    0.55192    1.000
    N936     N        0.19884    0.57114    0.54206    1.000
    Si937    Si       0.15444    0.56895    0.53660    1.000
    Si938    Si       0.21291    0.55522    0.57978    1.000
    Si939    Si       0.02446    0.63762    0.54361    1.000
    Si940    Si       0.09495    0.70074    0.54062    1.000
    N941     N        0.08527    0.66085    0.55677    1.000
    N942     N        0.06335    0.72802    0.55286    1.000
    Si943    Si       0.02671    0.70866    0.56611    1.000
    N944     N        0.02391    0.68020    0.53278    1.000
    N945     N        0.99111    0.73290    0.56425    1.000
    Si946    Si       0.10609    0.63591    0.52674    1.000
    Si947    Si       0.17989    0.66549    0.54023    1.000
    N948     N        0.18678    0.70875    0.55002    1.000
    N949     N        0.12430    0.73382    0.53818    1.000
    N950     N        0.17458    0.64761    0.58025    1.000
    Si951    Si       0.08828    0.54611    0.62033    1.000
    N952     N        0.02548    0.63250    0.58659    1.000
    N953     N        0.11830    0.57581    0.62984    1.000
    N954     N        0.18889    0.58238    0.60585    1.000
    Si955    Si       0.20259    0.62443    0.60485    1.000
    Si956    Si       0.16180    0.56874    0.63564    1.000
    N957     N        0.17496    0.52636    0.64128    1.000
    N958     N        0.08670    0.64111    0.62468    1.000
    N959     N        0.04124    0.69234    0.60462    1.000
    Si960    Si       0.06133    0.65361    0.59346    1.000
    N961     N        0.02832    0.75592    0.62692    1.000
    Si962    Si       0.04433    0.71776    0.64030    1.000
    Si963    Si       0.11345    0.67387    0.63831    1.000
    N964     N        0.16237    0.75454    0.59127    1.000
    N965     N        0.13910    0.70061    0.61528    1.000
    Si966    Si       0.22623    0.75011    0.63322    1.000
    N967     N        0.20951    0.71129    0.62021    1.000
    Si968    Si       0.17634    0.71271    0.59292    1.000
    Si969    Si       0.12699    0.74517    0.61813    1.000
    N970     N        0.19711    0.64431    0.64615    1.000
    N971     N        0.08242    0.60173    0.68386    1.000
    Si972    Si       0.05530    0.56715    0.68809    1.000
    N973     N        0.05705    0.54178    0.65139    1.000
    N974     N        0.01680    0.58535    0.69675    1.000
    Si975    Si       0.10716    0.61318    0.65065    1.000
    N976     N        0.99163    0.63581    0.65035    1.000
    N977     N        0.16602    0.58945    0.67272    1.000
    Si978    Si       0.21580    0.51382    0.65108    1.000
    Si979    Si       0.17078    0.63171    0.67892    1.000
    N980     N        0.08748    0.70480    0.65399    1.000
    N981     N        0.02086    0.69896    0.67165    1.000
    Si982    Si       0.99882    0.66353    0.68376    1.000
    Si983    Si       0.10089    0.72965    0.68602    1.000
    N984     N        0.05930    0.74901    0.68983    1.000
    N985     N        0.21118    0.70119    0.68526    1.000
    N986     N        0.12852    0.75654    0.66123    1.000
    N987     N        0.13029    0.64645    0.66780    1.000
    Si988    Si       0.22036    0.68005    0.64756    1.000
    Si989    Si       0.01891    0.60595    0.73542    1.000
    Si990    Si       0.09539    0.61482    0.72478    1.000
    N991     N        0.06090    0.59763    0.74877    1.000
    N992     N        0.07385    0.53946    0.71962    1.000
    Si993    Si       0.11227    0.52118    0.73606    1.000
    Si994    Si       0.06681    0.55512    0.75759    1.000
    Si995    Si       0.21986    0.53821    0.75436    1.000
    N996     N        0.20289    0.56991    0.72677    1.000
    N997     N        0.13318    0.59522    0.73429    1.000
    Si998    Si       0.20081    0.60765    0.74958    1.000
    Si999    Si       0.16118    0.57217    0.71129    1.000
    N1000    N        0.14684    0.53078    0.71032    1.000
    Si1001   Si       0.24143    0.56211    0.70065    1.000
    N1002    N        0.01810    0.64569    0.72012    1.000
    N1003    N        0.02663    0.70547    0.74149    1.000
    Si1004   Si       0.04631    0.66761    0.74693    1.000
    N1005    N        0.08847    0.65844    0.73906    1.000
    Si1006   Si       0.11193    0.68963    0.76100    1.000
    Si1007   Si       0.02501    0.72790    0.70427    1.000
    N1008    N        0.11310    0.72052    0.72777    1.000
    N1009    N        0.19218    0.63640    0.71552    1.000
    Si1010   Si       0.19966    0.73361    0.71240    1.000
    N1011    N        0.19992    0.70513    0.74448    1.000
    Si1012   Si       0.21675    0.67205    0.71999    1.000
    N1013    N        0.03344    0.53736    0.77986    1.000
    Si1014   Si       0.01721    0.57019    0.80247    1.000
    N1015    N        0.00069    0.60361    0.77676    1.000
    N1016    N        0.10779    0.54625    0.77104    1.000
    N1017    N        0.11854    0.60805    0.80051    1.000
    Si1018   Si       0.14027    0.57595    0.78347    1.000
    N1019    N        0.17619    0.60424    0.78466    1.000
    N1020    N        0.23186    0.54668    0.79587    1.000
    N1021    N        0.15853    0.54840    0.81271    1.000
    N1022    N        0.24019    0.60984    0.77077    1.000
    Si1023   Si       0.00430    0.63880    0.80244    1.000
    N1024    N        0.09359    0.70302    0.79789    1.000
    N1025    N        0.03916    0.66261    0.78947    1.000
    N1026    N        0.01647    0.74005    0.80080    1.000
    Si1027   Si       0.99743    0.70961    0.77648    1.000
    Si1028   Si       0.17762    0.70268    0.78063    1.000
    N1029    N        0.14929    0.73598    0.78241    1.000
    Si1030   Si       0.23443    0.73581    0.80481    1.000
    Si1031   Si       0.15214    0.63644    0.80220    1.000
    N1032    N        0.14779    0.66985    0.77709    1.000
    N1033    N        0.20578    0.70118    0.81537    1.000
    Si1034   Si       0.01983    0.59764    0.85898    1.000
    Si1035   Si       0.08815    0.60778    0.83137    1.000
    N1036    N        0.10971    0.58664    0.86459    1.000
    N1037    N        0.99393    0.56662    0.84285    1.000
    N1038    N        0.04829    0.59375    0.82570    1.000
    N1039    N        0.00227    0.63490    0.84625    1.000
    N1040    N        0.06998    0.52389    0.87375    1.000
    Si1041   Si       0.19919    0.55181    0.82593    1.000
    N1042    N        0.20827    0.52122    0.85371    1.000
    N1043    N        0.21823    0.58840    0.84535    1.000
    N1044    N        0.14044    0.52807    0.87543    1.000
    Si1045   Si       0.14305    0.51280    0.83209    1.000
    Si1046   Si       0.21170    0.61018    0.88187    1.000
    N1047    N        0.08874    0.64967    0.84241    1.000
    N1048    N        0.04237    0.70315    0.85143    1.000
    Si1049   Si       0.03866    0.74613    0.83953    1.000
    N1050    N        0.08108    0.75857    0.83674    1.000
    Si1051   Si       0.06512    0.68150    0.82084    1.000
    Si1052   Si       0.11816    0.73094    0.82229    1.000
    Si1053   Si       0.12428    0.66329    0.86299    1.000
    N1054    N        0.12527    0.70865    0.86046    1.000
    N1055    N        0.22805    0.65089    0.86854    1.000
    Si1056   Si       0.19737    0.67732    0.84988    1.000
    N1057    N        0.16188    0.65430    0.84131    1.000
    Si1058   Si       0.23614    0.73405    0.87661    1.000
    N1059    N        0.24517    0.75789    0.84101    1.000
    N1060    N        0.19886    0.71118    0.88119    1.000
    Si1061   Si       0.03301    0.61810    0.92376    1.000
    N1062    N        0.10408    0.56365    0.92289    1.000
    N1063    N        0.04413    0.58827    0.89364    1.000
    Si1064   Si       0.07868    0.56412    0.88614    1.000
    N1065    N        0.99118    0.62209    0.91238    1.000
    N1066    N        0.16855    0.60390    0.89490    1.000
    Si1067   Si       0.14083    0.56814    0.89578    1.000
    N1068    N        0.23322    0.60409    0.91831    1.000
    N1069    N        0.23365    0.53381    0.91466    1.000
    N1070    N        0.16791    0.55356    0.93569    1.000
    Si1071   Si       0.19910    0.52490    0.93953    1.000
    Si1072   Si       0.05469    0.74186    0.93574    1.000
    N1073    N        0.02129    0.74122    0.90706    1.000
    N1074    N        0.07690    0.71110    0.91372    1.000
    Si1075   Si       0.03043    0.69743    0.89146    1.000
    N1076    N        0.04381    0.65768    0.90839    1.000
    Si1077   Si       0.08303    0.66812    0.92398    1.000
    Si1078   Si       0.11745    0.72288    0.90058    1.000
    N1079    N        0.14780    0.71293    0.93204    1.000
    Si1080   Si       0.15411    0.63405    0.92236    1.000
    N1081    N        0.19116    0.65841    0.93198    1.000
    Si1082   Si       0.18626    0.69888    0.91962    1.000
    N1083    N        0.11933    0.65578    0.90567    1.000
    N1084    N        0.05660    0.53805    0.96257    1.000
    N1085    N        0.03631    0.60397    0.96491    1.000
    Si1086   Si       0.09940    0.53891    0.95700    1.000
    Si1087   Si       0.02298    0.56345    0.97226    1.000
    Si1088   Si       0.05395    0.62991    0.99265    1.000
    N1089    N        0.12264    0.55785    0.98990    1.000
    Si1090   Si       0.15536    0.58019    0.97039    1.000
    N1091    N        0.14087    0.62056    0.96224    1.000
    N1092    N        0.18936    0.57778    0.99699    1.000
    N1093    N        0.21633    0.51091    0.97657    1.000
    N1094    N        0.04276    0.72046    0.97230    1.000
    Si1095   Si       0.00510    0.73323    0.98822    1.000
    Si1096   Si       0.08210    0.70390    0.98749    1.000
    N1097    N        0.07769    0.66188    0.96660    1.000
    N1098    N        0.10437    0.74392    0.97222    1.000
    Si1099   Si       0.11646    0.64719    0.98808    1.000
    N1100    N        0.23597    0.63336    0.98525    1.000
    Si1101   Si       0.14605    0.73389    0.97041    1.000
    Si1102   Si       0.22958    0.64040    0.94384    1.000
    N1103    N        0.22404    0.74452    0.97032    1.000
    N1104    N        0.12569    0.69147    0.99641    1.000
    Si1105   Si       0.10396    0.78396    0.04397    1.000
    N1106    N        0.05745    0.87109    0.02745    1.000
    N1107    N        0.07675    0.79426    0.01047    1.000
    N1108    N        0.00845    0.77224    0.00966    1.000
    Si1109   Si       0.09904    0.88436    0.03442    1.000
    N1110    N        0.11967    0.86458    0.00130    1.000
    N1111    N        0.18361    0.86733    0.02745    1.000
    N1112    N        0.14015    0.80388    0.02964    1.000
    Si1113   Si       0.21788    0.84296    0.01626    1.000
    Si1114   Si       0.14560    0.84644    0.03157    1.000
    Si1115   Si       0.17224    0.77556    0.03124    1.000
    N1116    N        0.20120    0.80230    0.01258    1.000
    Si1117   Si       0.02398    0.94223    0.00265    1.000
    N1118    N        0.02288    0.94141    0.04719    1.000
    Si1119   Si       0.08199    0.98169    0.02511    1.000
    N1120    N        0.06564    0.95363    0.99697    1.000
    N1121    N        0.18177    0.94110    0.01674    1.000
    N1122    N        0.11678    0.92194    0.03779    1.000
    Si1123   Si       0.19315    0.90675    0.04259    1.000
    N1124    N        0.23650    0.91050    0.04095    1.000
    N1125    N        0.23728    0.97450    0.00193    1.000
    N1126    N        0.12234    0.98638    0.01024    1.000
    Si1127   Si       0.13955    0.94809    0.01273    1.000
    N1128    N        0.09190    0.80370    0.08180    1.000
    Si1129   Si       0.05097    0.78981    0.08809    1.000
    Si1130   Si       0.10202    0.84152    0.09802    1.000
    N1131    N        0.06370    0.86295    0.10066    1.000
    Si1132   Si       0.03811    0.85841    0.06538    1.000
    N1133    N        0.99877    0.87938    0.06802    1.000
    N1134    N        0.02582    0.81659    0.06346    1.000
    N1135    N        0.12108    0.86334    0.06514    1.000
    N1136    N        0.20373    0.85235    0.10324    1.000
    N1137    N        0.18169    0.76078    0.07054    1.000
    N1138    N        0.03631    0.92738    0.11365    1.000
    Si1139   Si       0.04119    0.96010    0.08458    1.000
    N1140    N        0.08032    0.97482    0.06924    1.000
    N1141    N        0.02335    0.00015    0.08882    1.000
    Si1142   Si       0.19081    0.96261    0.09079    1.000
    N1143    N        0.22704    0.97533    0.06752    1.000
    Si1144   Si       0.11752    0.98478    0.09006    1.000
    N1145    N        0.15913    0.98367    0.07299    1.000
    N1146    N        0.18494    0.92000    0.08348    1.000
    Si1147   Si       0.05728    0.77774    0.15692    1.000
    N1148    N        0.02770    0.79028    0.12616    1.000
    N1149    N        0.03654    0.87962    0.16763    1.000
    N1150    N        0.06962    0.81810    0.17012    1.000
    N1151    N        0.24333    0.86853    0.16473    1.000
    N1152    N        0.12743    0.83777    0.13450    1.000
    Si1153   Si       0.17524    0.84150    0.13405    1.000
    N1154    N        0.20060    0.81711    0.15924    1.000
    Si1155   Si       0.19949    0.77531    0.16789    1.000
    N1156    N        0.24011    0.76157    0.16570    1.000
    Si1157   Si       0.12945    0.75916    0.16620    1.000
    N1158    N        0.09854    0.90902    0.14841    1.000
    N1159    N        0.00712    0.97320    0.14938    1.000
    Si1160   Si       0.06022    0.89436    0.13285    1.000
    Si1161   Si       0.99744    0.93618    0.13062    1.000
    Si1162   Si       0.10819    0.95255    0.16430    1.000
    Si1163   Si       0.20326    0.89670    0.11615    1.000
    N1164    N        0.12534    0.97345    0.13174    1.000
    Si1165   Si       0.21077    0.00083    0.15717    1.000
    N1166    N        0.17231    0.88565    0.14604    1.000
    N1167    N        0.20966    0.95985    0.13092    1.000
    Si1168   Si       0.13596    0.89437    0.17084    1.000
    N1169    N        0.02566    0.82060    0.22329    1.000
    Si1170   Si       0.02836    0.77778    0.22688    1.000
    Si1171   Si       0.03340    0.83941    0.18267    1.000
    Si1172   Si       0.11249    0.82792    0.17395    1.000
    N1173    N        0.12028    0.86394    0.19905    1.000
    N1174    N        0.19140    0.77544    0.21174    1.000
    N1175    N        0.13295    0.79386    0.18987    1.000
    Si1176   Si       0.15501    0.79033    0.22804    1.000
    Si1177   Si       0.23836    0.82693    0.17546    1.000
    Si1178   Si       0.00296    0.90000    0.18804    1.000
    Si1179   Si       0.02994    0.97515    0.18933    1.000
    N1180    N        0.01890    0.93581    0.20509    1.000
    N1181    N        0.07536    0.97578    0.18722    1.000
    Si1182   Si       0.08618    0.98293    0.22870    1.000
    N1183    N        0.20925    0.91660    0.21217    1.000
    N1184    N        0.18456    0.98844    0.19193    1.000
    N1185    N        0.14278    0.93356    0.18732    1.000
    Si1186   Si       0.17694    0.94823    0.20667    1.000
    Si1187   Si       0.05107    0.84289    0.25561    1.000
    N1188    N        0.09007    0.82396    0.25168    1.000
    Si1189   Si       0.09303    0.78328    0.26829    1.000
    N1190    N        0.06095    0.88418    0.25137    1.000
    Si1191   Si       0.12068    0.85205    0.24233    1.000
    N1192    N        0.21089    0.86914    0.26292    1.000
    Si1193   Si       0.18795    0.83700    0.27767    1.000
    N1194    N        0.20984    0.80016    0.27640    1.000
    N1195    N        0.15945    0.83054    0.24498    1.000
    N1196    N        0.13266    0.76770    0.25832    1.000
    N1197    N        0.12326    0.88063    0.27620    1.000
    Si1198   Si       0.22592    0.78708    0.23862    1.000
    Si1199   Si       0.03553    0.01137    0.28537    1.000
    Si1200   Si       0.03803    0.92153    0.24178    1.000
    Si1201   Si       0.09110    0.91342    0.27726    1.000
    N1202    N        0.07526    0.94535    0.24818    1.000
    N1203    N        0.00920    0.92421    0.27423    1.000
    Si1204   Si       0.20194    0.91168    0.25676    1.000
    N1205    N        0.23746    0.92837    0.28050    1.000
    N1206    N        0.17322    0.94859    0.25148    1.000
    N1207    N        0.12368    0.00471    0.23694    1.000
    Si1208   Si       0.15980    0.95074    0.29256    1.000
    N1209    N        0.09422    0.79434    0.31036    1.000
    Si1210   Si       0.05652    0.80924    0.32458    1.000
    Si1211   Si       0.99716    0.85093    0.31658    1.000
    N1212    N        0.03280    0.77501    0.32904    1.000
    N1213    N        0.03437    0.83473    0.29573    1.000
    Si1214   Si       0.11705    0.76737    0.33547    1.000
    N1215    N        0.16658    0.83977    0.31582    1.000
    N1216    N        0.21267    0.78617    0.34551    1.000
    Si1217   Si       0.21938    0.77043    0.30702    1.000
    N1218    N        0.23377    0.87572    0.33225    1.000
    Si1219   Si       0.18031    0.81620    0.35073    1.000
    Si1220   Si       0.14554    0.88001    0.31354    1.000
    N1221    N        0.99702    0.93550    0.34238    1.000
    N1222    N        0.04774    0.97666    0.30631    1.000
    Si1223   Si       0.09202    0.97353    0.31939    1.000
    Si1224   Si       0.02761    0.93669    0.31325    1.000
    N1225    N        0.06494    0.91256    0.31709    1.000
    N1226    N        0.17041    0.98736    0.31457    1.000
    N1227    N        0.12624    0.89092    0.35031    1.000
    N1228    N        0.17740    0.91224    0.30488    1.000
    N1229    N        0.11798    0.94453    0.29868    1.000
    Si1230   Si       0.20845    0.98729    0.33488    1.000
    N1231    N        0.21648    0.94615    0.34597    1.000
    Si1232   Si       0.22054    0.91339    0.31636    1.000
    Si1233   Si       0.04383    0.85650    0.38130    1.000
    N1234    N        0.06226    0.82033    0.36605    1.000
    Si1235   Si       0.07392    0.78625    0.39271    1.000
    N1236    N        0.01400    0.86794    0.35337    1.000
    N1237    N        0.20500    0.83461    0.38395    1.000
    Si1238   Si       0.14144    0.77425    0.39976    1.000
    Si1239   Si       0.22186    0.87377    0.37472    1.000
    N1240    N        0.14940    0.78814    0.36082    1.000
    Si1241   Si       0.24006    0.80441    0.37443    1.000
    N1242    N        0.07092    0.89037    0.38578    1.000
    Si1243   Si       0.07539    0.98743    0.39021    1.000
    N1244    N        0.09033    0.95876    0.36011    1.000
    Si1245   Si       0.08851    0.91355    0.35295    1.000
    N1246    N        0.03600    0.98007    0.40872    1.000
    N1247    N        0.00121    0.91164    0.40934    1.000
    Si1248   Si       0.17421    0.01012    0.39269    1.000
    N1249    N        0.16180    0.96769    0.39344    1.000
    N1250    N        0.18662    0.89720    0.38053    1.000
    Si1251   Si       0.14629    0.88597    0.38757    1.000
    N1252    N        0.21383    0.00664    0.37289    1.000
    Si1253   Si       0.19462    0.94049    0.38331    1.000
    Si1254   Si       0.01753    0.80986    0.43946    1.000
    N1255    N        0.08452    0.85574    0.44506    1.000
    N1256    N        0.04123    0.77875    0.42009    1.000
    Si1257   Si       0.99872    0.87822    0.43764    1.000
    N1258    N        0.02011    0.84578    0.41661    1.000
    N1259    N        0.10850    0.79306    0.41810    1.000
    Si1260   Si       0.11727    0.82914    0.43776    1.000
    N1261    N        0.21339    0.87583    0.44371    1.000
    Si1262   Si       0.21288    0.77812    0.43357    1.000
    N1263    N        0.20028    0.81502    0.45363    1.000
    Si1264   Si       0.18777    0.84501    0.42426    1.000
    N1265    N        0.14749    0.85112    0.41630    1.000
    Si1266   Si       0.08816    0.89434    0.42609    1.000
    N1267    N        0.06339    0.92464    0.44662    1.000
    Si1268   Si       0.02820    0.94093    0.42863    1.000
    N1269    N        0.10285    0.98560    0.42366    1.000
    N1270    N        0.00563    0.95841    0.46195    1.000
    Si1271   Si       0.08987    0.01161    0.45738    1.000
    Si1272   Si       0.00630    0.01224    0.41585    1.000
    Si1273   Si       0.23948    0.91047    0.43429    1.000
    Si1274   Si       0.22238    0.98147    0.44575    1.000
    N1275    N        0.12824    0.91271    0.41774    1.000
    Si1276   Si       0.13330    0.95539    0.42569    1.000
    N1277    N        0.21694    0.94453    0.42153    1.000
    N1278    N        0.08399    0.85050    0.51072    1.000
    Si1279   Si       0.10452    0.81141    0.51310    1.000
    Si1280   Si       0.05491    0.85552    0.47702    1.000
    N1281    N        0.07709    0.78016    0.51778    1.000
    N1282    N        0.02959    0.81717    0.48040    1.000
    N1283    N        0.01928    0.87999    0.47400    1.000
    Si1284   Si       0.03716    0.77704    0.50379    1.000
    Si1285   Si       0.99720    0.83003    0.51171    1.000
    N1286    N        0.13007    0.81263    0.47886    1.000
    N1287    N        0.18397    0.84496    0.50270    1.000
    Si1288   Si       0.17181    0.80486    0.48762    1.000
    Si1289   Si       0.21986    0.84689    0.47624    1.000
    N1290    N        0.17555    0.77801    0.52329    1.000
    N1291    N        0.06762    0.98335    0.48270    1.000
    Si1292   Si       0.02525    0.99282    0.48054    1.000
    Si1293   Si       0.00692    0.90352    0.50910    1.000
    N1294    N        0.10582    0.91633    0.50742    1.000
    Si1295   Si       0.07247    0.93854    0.48572    1.000
    N1296    N        0.04149    0.92797    0.51707    1.000
    N1297    N        0.00786    0.00820    0.51750    1.000
    Si1298   Si       0.16199    0.00094    0.47153    1.000
    Si1299   Si       0.14182    0.93990    0.50705    1.000
    N1300    N        0.17721    0.91861    0.51791    1.000
    Si1301   Si       0.22414    0.00270    0.51161    1.000
    Si1302   Si       0.21525    0.94023    0.52367    1.000
    N1303    N        0.21935    0.96406    0.48632    1.000
    N1304    N        0.14716    0.96013    0.46846    1.000
    Si1305   Si       0.09333    0.76331    0.55505    1.000
    N1306    N        0.99820    0.86871    0.53427    1.000
    N1307    N        0.00545    0.79186    0.53159    1.000
    N1308    N        0.12205    0.80429    0.55339    1.000
    Si1309   Si       0.16292    0.78960    0.56403    1.000
    N1310    N        0.14087    0.87385    0.55175    1.000
    N1311    N        0.21986    0.87016    0.55190    1.000
    Si1312   Si       0.17952    0.87724    0.53126    1.000
    Si1313   Si       0.10025    0.88297    0.53423    1.000
    N1314    N        0.07345    0.88780    0.56860    1.000
    N1315    N        0.07414    0.95809    0.57025    1.000
    Si1316   Si       0.04822    0.92502    0.56025    1.000
    Si1317   Si       0.11594    0.96720    0.57858    1.000
    N1318    N        0.13628    0.96965    0.53960    1.000
    N1319    N        0.21795    0.97534    0.54919    1.000
    Si1320   Si       0.07362    0.86416    0.60504    1.000
    Si1321   Si       0.06034    0.78745    0.62409    1.000
    N1322    N        0.05408    0.82461    0.60150    1.000
    N1323    N        0.09324    0.76658    0.60156    1.000
    N1324    N        0.11492    0.85387    0.61503    1.000
    Si1325   Si       0.21993    0.87526    0.59419    1.000
    Si1326   Si       0.20577    0.80652    0.61895    1.000
    N1327    N        0.23012    0.84386    0.62401    1.000
    N1328    N        0.23025    0.77674    0.59966    1.000
    Si1329   Si       0.15204    0.85860    0.59102    1.000
    N1330    N        0.17420    0.82150    0.59239    1.000
    N1331    N        0.18114    0.88793    0.60779    1.000
    N1332    N        0.05496    0.88931    0.63671    1.000
    Si1333   Si       0.01438    0.89973    0.62226    1.000
    N1334    N        0.02493    0.99213    0.61452    1.000
    Si1335   Si       0.99794    0.95685    0.61141    1.000
    N1336    N        0.10267    0.00302    0.59974    1.000
    Si1337   Si       0.06097    0.99451    0.58915    1.000
    N1338    N        0.01419    0.92557    0.58592    1.000
    N1339    N        0.20601    0.95033    0.61187    1.000
    N1340    N        0.13396    0.94612    0.61110    1.000
    Si1341   Si       0.20770    0.98903    0.59120    1.000
    Si1342   Si       0.17090    0.92784    0.62278    1.000
    N1343    N        0.07647    0.80741    0.66000    1.000
    N1344    N        0.10786    0.87103    0.68280    1.000
    Si1345   Si       0.10901    0.83587    0.65589    1.000
    Si1346   Si       0.06726    0.78975    0.69891    1.000
    Si1347   Si       0.98910    0.79413    0.69913    1.000
    N1348    N        0.14870    0.82369    0.67426    1.000
    Si1349   Si       0.16004    0.78273    0.67705    1.000
    N1350    N        0.19690    0.77860    0.65284    1.000
    N1351    N        0.18337    0.87803    0.70338    1.000
    Si1352   Si       0.14500    0.85906    0.70167    1.000
    N1353    N        0.09436    0.94371    0.67188    1.000
    Si1354   Si       0.07615    0.90075    0.67318    1.000
    N1355    N        0.99370    0.93163    0.64564    1.000
    Si1356   Si       0.12876    0.96012    0.65235    1.000
    N1357    N        0.13646    0.00114    0.65956    1.000
    Si1358   Si       0.18274    0.92297    0.70215    1.000
    N1359    N        0.16231    0.93437    0.66508    1.000
    N1360    N        0.20508    0.01129    0.68855    1.000
    N1361    N        0.00864    0.86860    0.74102    1.000
    N1362    N        0.10154    0.78945    0.72531    1.000
    N1363    N        0.03088    0.80643    0.71782    1.000
    Si1364   Si       0.03102    0.83246    0.75480    1.000
    Si1365   Si       0.10511    0.82342    0.75403    1.000
    N1366    N        0.13571    0.85558    0.74411    1.000
    Si1367   Si       0.21516    0.85516    0.72485    1.000
    N1368    N        0.19604    0.82392    0.74555    1.000
    Si1369   Si       0.22443    0.79017    0.74968    1.000
    N1370    N        0.16629    0.76031    0.71313    1.000
    Si1371   Si       0.13247    0.76010    0.74408    1.000
    N1372    N        0.23253    0.76021    0.71938    1.000
    Si1373   Si       0.06971    0.00614    0.75153    1.000
    N1374    N        0.99475    0.93945    0.74446    1.000
    N1375    N        0.05301    0.91260    0.70903    1.000
    N1376    N        0.09456    0.96130    0.74571    1.000
    Si1377   Si       0.02561    0.90947    0.74176    1.000
    Si1378   Si       0.07256    0.95385    0.70742    1.000
    N1379    N        0.04977    0.98845    0.71157    1.000
    Si1380   Si       0.00375    0.97705    0.76047    1.000
    N1381    N        0.22076    0.94530    0.70817    1.000
    Si1382   Si       0.22784    0.98694    0.71701    1.000
    Si1383   Si       0.13946    0.96557    0.74849    1.000
    N1384    N        0.14676    0.00164    0.72634    1.000
    N1385    N        0.22135    0.99860    0.75788    1.000
    N1386    N        0.15747    0.92736    0.73657    1.000
    N1387    N        0.01537    0.81052    0.78818    1.000
    Si1388   Si       0.99630    0.77991    0.80779    1.000
    Si1389   Si       0.07456    0.88128    0.79545    1.000
    N1390    N        0.07060    0.84598    0.76673    1.000
    Si1391   Si       0.16813    0.77577    0.80030    1.000
    Si1392   Si       0.16521    0.83285    0.77635    1.000
    N1393    N        0.13845    0.79853    0.77447    1.000
    N1394    N        0.20982    0.76813    0.78315    1.000
    N1395    N        0.17334    0.87860    0.78971    1.000
    N1396    N        0.17819    0.81850    0.81736    1.000
    Si1397   Si       0.07091    0.94669    0.78058    1.000
    N1398    N        0.04763    0.91130    0.77865    1.000
    N1399    N        0.04347    0.98298    0.77905    1.000
    N1400    N        0.11085    0.90464    0.78967    1.000
    N1401    N        0.08909    0.95988    0.81746    1.000
    N1402    N        0.15433    0.97195    0.79005    1.000
    N1403    N        0.22183    0.95124    0.81364    1.000
    Si1404   Si       0.12932    0.94149    0.81216    1.000
    Si1405   Si       0.19930    0.97932    0.79115    1.000
    Si1406   Si       0.14399    0.89483    0.76171    1.000
    Si1407   Si       0.08729    0.85016    0.86325    1.000
    N1408    N        0.00847    0.77856    0.85078    1.000
    N1409    N        0.05950    0.86879    0.83486    1.000
    Si1410   Si       0.02778    0.86356    0.86535    1.000
    Si1411   Si       0.11052    0.78002    0.86050    1.000
    N1412    N        0.11706    0.82242    0.85495    1.000
    Si1413   Si       0.15970    0.82465    0.85635    1.000
    N1414    N        0.16461    0.86741    0.86441    1.000
    N1415    N        0.14651    0.76629    0.83774    1.000
    N1416    N        0.23718    0.82099    0.87395    1.000
    Si1417   Si       0.23873    0.86407    0.87222    1.000
    N1418    N        0.02068    0.97374    0.85062    1.000
    Si1419   Si       0.06375    0.98615    0.84234    1.000
    Si1420   Si       0.23938    0.92911    0.84468    1.000
    N1421    N        0.16087    0.92570    0.83793    1.000
    Si1422   Si       0.17781    0.94616    0.87210    1.000
    N1423    N        0.22431    0.88831    0.84117    1.000
    Si1424   Si       0.18244    0.88656    0.83056    1.000
    N1425    N        0.17453    0.98761    0.87876    1.000
    N1426    N        0.00118    0.81156    0.91920    1.000
    Si1427   Si       0.04246    0.82457    0.93049    1.000
    N1428    N        0.05416    0.83543    0.88871    1.000
    Si1429   Si       0.99656    0.77535    0.89518    1.000
    N1430    N        0.11440    0.76620    0.90106    1.000
    N1431    N        0.09954    0.88192    0.89164    1.000
    Si1432   Si       0.14192    0.79313    0.92338    1.000
    Si1433   Si       0.21510    0.80177    0.90462    1.000
    N1434    N        0.17188    0.80625    0.89549    1.000
    N1435    N        0.23692    0.87984    0.91540    1.000
    N1436    N        0.24015    0.76483    0.90676    1.000
    Si1437   Si       0.14248    0.88632    0.89499    1.000
    Si1438   Si       0.06768    0.89477    0.91760    1.000
    Si1439   Si       0.05875    0.97044    0.91592    1.000
    N1440    N        0.01590    0.97530    0.91757    1.000
    N1441    N        0.07752    0.93467    0.93098    1.000
    N1442    N        0.02887    0.89626    0.89575    1.000
    N1443    N        0.08131    0.98774    0.88306    1.000
    Si1444   Si       0.99305    0.96249    0.88291    1.000
    N1445    N        0.21996    0.94062    0.88310    1.000
    Si1446   Si       0.23097    0.92457    0.92174    1.000
    N1447    N        0.15433    0.92797    0.90218    1.000
    N1448    N        0.02040    0.83547    0.97426    1.000
    N1449    N        0.06997    0.86453    0.94982    1.000
    Si1450   Si       0.04283    0.87083    0.98584    1.000
    Si1451   Si       0.09552    0.78645    0.97069    1.000
    N1452    N        0.05651    0.78557    0.94970    1.000
    Si1453   Si       0.03832    0.79642    0.99088    1.000
    Si1454   Si       0.11411    0.85725    0.95839    1.000
    N1455    N        0.11705    0.81605    0.94927    1.000
    Si1456   Si       0.20151    0.78304    0.97226    1.000
    N1457    N        0.16300    0.77179    0.95563    1.000
    N1458    N        0.22143    0.81186    0.94616    1.000
    N1459    N        0.14652    0.87828    0.93959    1.000
    N1460    N        0.08018    0.99901    0.94528    1.000
    Si1461   Si       0.09404    0.95791    0.96435    1.000
    N1462    N        0.01973    0.90675    0.98177    1.000
    Si1463   Si       0.99462    0.99572    0.94920    1.000
    N1464    N        0.99620    0.97151    0.98747    1.000
    N1465    N        0.20013    0.93321    0.95061    1.000
    N1466    N        0.13393    0.94117    0.96904    1.000
    Si1467   Si       0.15971    0.91945    0.94433    1.000
    Si1468   Si       0.19994    0.96284    0.98273    1.000
    N1469    N        0.18003    0.00108    0.97487    1.000
    Si1470   Si       0.30870    0.04232    0.03566    1.000
    N1471    N        0.34547    0.02101    0.02378    1.000
    N1472    N        0.30831    0.12839    0.02329    1.000
    N1473    N        0.26989    0.02185    0.04083    1.000
    N1474    N        0.24739    0.10000    0.03418    1.000
    Si1475   Si       0.27673    0.10546    0.00120    1.000
    Si1476   Si       0.25205    0.01421    0.00239    1.000
    N1477    N        0.29853    0.06780    0.00001    1.000
    Si1478   Si       0.43559    0.08670    0.05412    1.000
    N1479    N        0.41277    0.11789    0.03370    1.000
    N1480    N        0.46043    0.06847    0.02371    1.000
    Si1481   Si       0.43979    0.04044    0.99861    1.000
    N1482    N        0.26282    0.17956    0.04147    1.000
    N1483    N        0.29619    0.23858    0.02721    1.000
    N1484    N        0.36438    0.17016    0.01654    1.000
    Si1485   Si       0.44803    0.21588    0.02081    1.000
    N1486    N        0.45571    0.17161    0.01823    1.000
    Si1487   Si       0.44004    0.14940    0.05243    1.000
    N1488    N        0.40582    0.22335    0.01763    1.000
    Si1489   Si       0.39542    0.25735    0.04306    1.000
    Si1490   Si       0.33299    0.04442    0.10371    1.000
    N1491    N        0.31874    0.06880    0.06755    1.000
    N1492    N        0.28371    0.12743    0.08681    1.000
    Si1493   Si       0.31774    0.11295    0.06411    1.000
    N1494    N        0.35605    0.12830    0.07505    1.000
    N1495    N        0.25321    0.02925    0.11030    1.000
    N1496    N        0.37212    0.03044    0.09503    1.000
    Si1497   Si       0.37595    0.10252    0.10398    1.000
    N1498    N        0.46179    0.11714    0.07409    1.000
    N1499    N        0.41345    0.08116    0.08997    1.000
    Si1500   Si       0.41210    0.03940    0.10723    1.000
    Si1501   Si       0.47997    0.01640    0.10558    1.000
    Si1502   Si       0.43992    0.11705    0.11493    1.000
    N1503    N        0.44154    0.01453    0.08658    1.000
    N1504    N        0.33500    0.19922    0.07210    1.000
    Si1505   Si       0.34838    0.23440    0.09765    1.000
    N1506    N        0.27307    0.21604    0.09652    1.000
    Si1507   Si       0.29491    0.20602    0.05769    1.000
    Si1508   Si       0.25447    0.13811    0.05706    1.000
    Si1509   Si       0.36843    0.16978    0.06081    1.000
    Si1510   Si       0.47543    0.24825    0.09152    1.000
    Si1511   Si       0.42005    0.21409    0.09419    1.000
    N1512    N        0.38852    0.24141    0.08371    1.000
    N1513    N        0.45281    0.22640    0.06194    1.000
    N1514    N        0.41082    0.17382    0.07404    1.000
    N1515    N        0.28158    0.09524    0.15541    1.000
    Si1516   Si       0.32389    0.08164    0.16215    1.000
    N1517    N        0.31641    0.02664    0.14286    1.000
    N1518    N        0.34486    0.08159    0.12345    1.000
    Si1519   Si       0.27663    0.13197    0.12972    1.000
    N1520    N        0.47984    0.02146    0.14909    1.000
    N1521    N        0.46170    0.09109    0.14261    1.000
    N1522    N        0.41447    0.04245    0.15227    1.000
    Si1523   Si       0.45560    0.05374    0.16369    1.000
    N1524    N        0.39851    0.12527    0.13264    1.000
    N1525    N        0.30284    0.16445    0.14026    1.000
    N1526    N        0.33578    0.22516    0.13878    1.000
    Si1527   Si       0.29444    0.20495    0.13309    1.000
    Si1528   Si       0.25197    0.25387    0.15826    1.000
    N1529    N        0.26317    0.21229    0.16491    1.000
    N1530    N        0.44860    0.24072    0.12390    1.000
    N1531    N        0.40155    0.20409    0.13332    1.000
    Si1532   Si       0.41886    0.24581    0.15469    1.000
    Si1533   Si       0.41580    0.16585    0.14455    1.000
    N1534    N        0.45586    0.16145    0.12959    1.000
    Si1535   Si       0.49206    0.17670    0.14973    1.000
    N1536    N        0.49360    0.21472    0.17213    1.000
    N1537    N        0.34978    0.05779    0.18905    1.000
    N1538    N        0.30507    0.02550    0.21254    1.000
    Si1539   Si       0.32647    0.06090    0.22486    1.000
    Si1540   Si       0.33309    0.01144    0.18098    1.000
    N1541    N        0.34310    0.12167    0.17829    1.000
    Si1542   Si       0.44541    0.09085    0.22606    1.000
    N1543    N        0.46750    0.05854    0.20810    1.000
    N1544    N        0.40836    0.08856    0.19966    1.000
    Si1545   Si       0.39195    0.04670    0.19250    1.000
    N1546    N        0.41249    0.03054    0.22976    1.000
    Si1547   Si       0.45684    0.02286    0.23086    1.000
    Si1548   Si       0.38579    0.11859    0.17833    1.000
    Si1549   Si       0.35174    0.22737    0.17967    1.000
    N1550    N        0.33751    0.19188    0.20066    1.000
    N1551    N        0.28274    0.15086    0.19987    1.000
    Si1552   Si       0.31986    0.15779    0.17948    1.000
    Si1553   Si       0.24884    0.17152    0.17700    1.000
    Si1554   Si       0.40533    0.19287    0.21459    1.000
    N1555    N        0.39330    0.23128    0.19180    1.000
    N1556    N        0.40270    0.15790    0.18593    1.000
    Si1557   Si       0.47245    0.22965    0.20658    1.000
    Si1558   Si       0.47958    0.16157    0.21382    1.000
    N1559    N        0.44906    0.19250    0.21696    1.000
    N1560    N        0.35480    0.05388    0.25721    1.000
    Si1561   Si       0.28760    0.07604    0.28100    1.000
    N1562    N        0.29612    0.03252    0.28271    1.000
    N1563    N        0.29956    0.09047    0.24163    1.000
    Si1564   Si       0.27674    0.01540    0.24498    1.000
    Si1565   Si       0.28730    0.13377    0.23932    1.000
    Si1566   Si       0.34149    0.02854    0.28981    1.000
    N1567    N        0.24740    0.13473    0.25897    1.000
    N1568    N        0.42362    0.08731    0.26490    1.000
    Si1569   Si       0.39760    0.05462    0.26288    1.000
    N1570    N        0.47317    0.12275    0.23566    1.000
    N1571    N        0.27570    0.25256    0.24703    1.000
    N1572    N        0.34008    0.22343    0.26108    1.000
    N1573    N        0.31970    0.15364    0.25971    1.000
    Si1574   Si       0.34253    0.18462    0.24264    1.000
    Si1575   Si       0.24492    0.23365    0.27295    1.000
    Si1576   Si       0.31891    0.25921    0.24272    1.000
    Si1577   Si       0.40120    0.16235    0.28992    1.000
    N1578    N        0.48461    0.24604    0.24417    1.000
    N1579    N        0.38696    0.18014    0.25121    1.000
    N1580    N        0.41498    0.24369    0.25200    1.000
    Si1581   Si       0.45318    0.25352    0.27266    1.000
    Si1582   Si       0.38138    0.22510    0.27540    1.000
    N1583    N        0.31124    0.10029    0.30943    1.000
    N1584    N        0.33748    0.03747    0.33293    1.000
    Si1585   Si       0.26283    0.09982    0.33804    1.000
    N1586    N        0.24965    0.07617    0.30295    1.000
    Si1587   Si       0.32712    0.07792    0.34571    1.000
    N1588    N        0.23514    0.01094    0.30985    1.000
    N1589    N        0.45659    0.02921    0.33549    1.000
    Si1590   Si       0.41871    0.04770    0.33849    1.000
    N1591    N        0.42502    0.09054    0.33328    1.000
    Si1592   Si       0.39161    0.11652    0.33967    1.000
    N1593    N        0.39882    0.03176    0.30012    1.000
    Si1594   Si       0.44546    0.10705    0.29884    1.000
    N1595    N        0.37529    0.13169    0.30296    1.000
    N1596    N        0.48732    0.09378    0.29699    1.000
    Si1597   Si       0.33220    0.13662    0.29932    1.000
    N1598    N        0.26166    0.14388    0.33079    1.000
    N1599    N        0.32773    0.16514    0.33272    1.000
    N1600    N        0.27892    0.21554    0.34675    1.000
    Si1601   Si       0.24765    0.24384    0.34686    1.000
    Si1602   Si       0.28800    0.17275    0.34869    1.000
    N1603    N        0.43979    0.15206    0.29809    1.000
    Si1604   Si       0.36403    0.18178    0.34677    1.000
    N1605    N        0.38876    0.19856    0.31352    1.000
    Si1606   Si       0.41076    0.23659    0.32605    1.000
    Si1607   Si       0.46181    0.18543    0.31721    1.000
    N1608    N        0.44882    0.22591    0.30674    1.000
    N1609    N        0.37944    0.25916    0.30436    1.000
    N1610    N        0.29115    0.08404    0.36640    1.000
    Si1611   Si       0.32962    0.01614    0.36917    1.000
    Si1612   Si       0.25250    0.01656    0.38930    1.000
    N1613    N        0.33268    0.04620    0.40364    1.000
    N1614    N        0.36329    0.09163    0.36115    1.000
    Si1615   Si       0.29319    0.07074    0.40812    1.000
    N1616    N        0.24754    0.05613    0.41327    1.000
    Si1617   Si       0.48226    0.03953    0.36919    1.000
    Si1618   Si       0.37790    0.06872    0.39688    1.000
    N1619    N        0.40178    0.03859    0.37512    1.000
    N1620    N        0.47213    0.11999    0.38865    1.000
    N1621    N        0.45855    0.04990    0.40369    1.000
    N1622    N        0.29420    0.16662    0.39282    1.000
    N1623    N        0.35403    0.20384    0.38274    1.000
    Si1624   Si       0.46925    0.16158    0.40077    1.000
    Si1625   Si       0.45757    0.22600    0.37862    1.000
    Si1626   Si       0.40051    0.14496    0.40568    1.000
    N1627    N        0.39357    0.15277    0.36350    1.000
    N1628    N        0.41578    0.23361    0.36910    1.000
    Si1629   Si       0.38164    0.23560    0.39613    1.000
    N1630    N        0.47114    0.18794    0.36226    1.000
    N1631    N        0.28759    0.10703    0.43138    1.000
    Si1632   Si       0.33844    0.03128    0.44648    1.000
    N1633    N        0.29591    0.04928    0.45867    1.000
    Si1634   Si       0.27860    0.01046    0.46420    1.000
    Si1635   Si       0.27040    0.08494    0.46664    1.000
    N1636    N        0.40682    0.10227    0.40810    1.000
    Si1637   Si       0.48075    0.01692    0.42463    1.000
    N1638    N        0.38984    0.04888    0.43534    1.000
    N1639    N        0.47034    0.09733    0.45027    1.000
    Si1640   Si       0.44947    0.09194    0.41142    1.000
    Si1641   Si       0.42032    0.02764    0.41341    1.000
    Si1642   Si       0.26915    0.14578    0.42263    1.000
    N1643    N        0.32136    0.20651    0.44505    1.000
    N1644    N        0.25990    0.23426    0.42452    1.000
    N1645    N        0.27103    0.16857    0.45927    1.000
    Si1646   Si       0.27695    0.21144    0.45746    1.000
    Si1647   Si       0.35513    0.22510    0.46186    1.000
    Si1648   Si       0.33151    0.17943    0.41164    1.000
    N1649    N        0.36343    0.15160    0.42895    1.000
    Si1650   Si       0.42903    0.20734    0.44432    1.000
    N1651    N        0.43161    0.16958    0.42073    1.000
    N1652    N        0.46336    0.22341    0.42358    1.000
    N1653    N        0.38951    0.22362    0.43593    1.000
    N1654    N        0.28693    0.11018    0.49934    1.000
    N1655    N        0.35687    0.03888    0.48489    1.000
    N1656    N        0.38032    0.10080    0.49105    1.000
    N1657    N        0.43442    0.05798    0.49383    1.000
    Si1658   Si       0.46662    0.08648    0.49264    1.000
    Si1659   Si       0.39414    0.06133    0.47857    1.000
    N1660    N        0.46789    0.12823    0.51173    1.000
    Si1661   Si       0.44635    0.02882    0.52408    1.000
    Si1662   Si       0.34404    0.25703    0.51678    1.000
    Si1663   Si       0.29659    0.15085    0.48899    1.000
    N1664    N        0.26378    0.23022    0.49482    1.000
    N1665    N        0.34022    0.15309    0.49032    1.000
    Si1666   Si       0.34090    0.18282    0.52256    1.000
    N1667    N        0.29707    0.17953    0.52165    1.000
    N1668    N        0.36145    0.21638    0.50621    1.000
    N1669    N        0.43185    0.23069    0.48359    1.000
    Si1670   Si       0.37638    0.14046    0.47133    1.000
    Si1671   Si       0.40514    0.20620    0.50654    1.000
    N1672    N        0.40940    0.16576    0.48704    1.000
    Si1673   Si       0.43007    0.14786    0.52088    1.000
    N1674    N        0.33619    0.10677    0.55496    1.000
    N1675    N        0.26245    0.09572    0.56262    1.000
    Si1676   Si       0.29779    0.09239    0.53843    1.000
    Si1677   Si       0.27746    0.01590    0.54218    1.000
    N1678    N        0.30640    0.04908    0.53495    1.000
    Si1679   Si       0.34677    0.03390    0.52624    1.000
    Si1680   Si       0.37304    0.09703    0.53381    1.000
    N1681    N        0.37849    0.05523    0.54522    1.000
    N1682    N        0.44351    0.05075    0.55947    1.000
    N1683    N        0.40710    0.12240    0.54779    1.000
    Si1684   Si       0.40295    0.04488    0.58045    1.000
    N1685    N        0.29657    0.21249    0.57780    1.000
    N1686    N        0.35788    0.17839    0.56191    1.000
    Si1687   Si       0.27791    0.21525    0.53425    1.000
    N1688    N        0.30316    0.25656    0.53430    1.000
    N1689    N        0.46285    0.25427    0.54161    1.000
    N1690    N        0.42848    0.18762    0.54200    1.000
    Si1691   Si       0.39797    0.18400    0.57493    1.000
    Si1692   Si       0.46845    0.20984    0.55121    1.000
    N1693    N        0.29817    0.08709    0.61735    1.000
    N1694    N        0.35321    0.12038    0.63093    1.000
    Si1695   Si       0.32871    0.11222    0.59652    1.000
    Si1696   Si       0.26806    0.11508    0.60296    1.000
    N1697    N        0.29864    0.02139    0.63838    1.000
    N1698    N        0.40344    0.08346    0.60587    1.000
    N1699    N        0.47307    0.03854    0.62005    1.000
    N1700    N        0.46672    0.10766    0.59270    1.000
    Si1701   Si       0.42363    0.11805    0.58713    1.000
    Si1702   Si       0.37661    0.08624    0.64086    1.000
    Si1703   Si       0.47244    0.06522    0.58696    1.000
    Si1704   Si       0.44342    0.01010    0.63400    1.000
    N1705    N        0.40964    0.00903    0.60446    1.000
    N1706    N        0.24082    0.19738    0.62822    1.000
    N1707    N        0.34271    0.18903    0.62528    1.000
    Si1708   Si       0.25626    0.22028    0.59415    1.000
    N1709    N        0.29896    0.14541    0.59306    1.000
    Si1710   Si       0.33812    0.23137    0.64094    1.000
    Si1711   Si       0.32317    0.18123    0.58803    1.000
    N1712    N        0.48399    0.16123    0.64375    1.000
    Si1713   Si       0.45091    0.18433    0.62117    1.000
    N1714    N        0.39855    0.22300    0.59172    1.000
    N1715    N        0.42044    0.15838    0.60327    1.000
    N1716    N        0.47586    0.20978    0.59538    1.000
    N1717    N        0.31374    0.07106    0.68772    1.000
    N1718    N        0.25002    0.06746    0.66079    1.000
    Si1719   Si       0.35782    0.06034    0.69435    1.000
    Si1720   Si       0.29122    0.06111    0.65133    1.000
    N1721    N        0.35864    0.04753    0.64897    1.000
    Si1722   Si       0.48389    0.05175    0.66989    1.000
    N1723    N        0.44572    0.02612    0.67534    1.000
    N1724    N        0.38493    0.09436    0.68325    1.000
    N1725    N        0.47943    0.09481    0.65655    1.000
    Si1726   Si       0.47353    0.10811    0.69896    1.000
    Si1727   Si       0.39530    0.13180    0.70054    1.000
    N1728    N        0.25098    0.18637    0.69952    1.000
    Si1729   Si       0.34066    0.15520    0.65315    1.000
    Si1730   Si       0.27293    0.19197    0.66104    1.000
    N1731    N        0.30284    0.15895    0.67229    1.000
    N1732    N        0.30026    0.22708    0.66550    1.000
    N1733    N        0.43801    0.13641    0.69567    1.000
    N1734    N        0.37390    0.16497    0.67882    1.000
    Si1735   Si       0.39806    0.20064    0.67277    1.000
    Si1736   Si       0.46351    0.16942    0.68283    1.000
    Si1737   Si       0.46506    0.23517    0.67303    1.000
    N1738    N        0.37644    0.23799    0.66247    1.000
    N1739    N        0.43672    0.20214    0.65663    1.000
    Si1740   Si       0.30915    0.08402    0.72872    1.000
    N1741    N        0.35265    0.07092    0.73786    1.000
    N1742    N        0.27919    0.05444    0.74890    1.000
    N1743    N        0.31339    0.12757    0.73435    1.000
    N1744    N        0.25565    0.11850    0.70696    1.000
    Si1745   Si       0.26219    0.01492    0.76301    1.000
    N1746    N        0.42469    0.02418    0.74688    1.000
    Si1747   Si       0.38486    0.04158    0.75377    1.000
    N1748    N        0.37536    0.02212    0.70961    1.000
    Si1749   Si       0.42014    0.01084    0.70564    1.000
    N1750    N        0.49396    0.07105    0.71180    1.000
    N1751    N        0.33322    0.21737    0.73208    1.000
    N1752    N        0.27380    0.24223    0.73667    1.000
    Si1753   Si       0.28289    0.15202    0.71284    1.000
    N1754    N        0.27667    0.17582    0.75316    1.000
    Si1755   Si       0.30785    0.24403    0.70602    1.000
    Si1756   Si       0.30182    0.21062    0.76197    1.000
    N1757    N        0.39003    0.13435    0.74610    1.000
    Si1758   Si       0.44333    0.21164    0.74079    1.000
    N1759    N        0.47305    0.20570    0.70687    1.000
    Si1760   Si       0.48989    0.15708    0.75455    1.000
    N1761    N        0.40759    0.20695    0.71768    1.000
    Si1762   Si       0.37454    0.22162    0.74228    1.000
    N1763    N        0.33682    0.11669    0.79553    1.000
    N1764    N        0.27661    0.11192    0.78974    1.000
    Si1765   Si       0.25401    0.07925    0.77620    1.000
    N1766    N        0.25174    0.04643    0.80427    1.000
    N1767    N        0.36217    0.01625    0.78217    1.000
    Si1768   Si       0.36628    0.10384    0.76515    1.000
    Si1769   Si       0.28477    0.02423    0.82804    1.000
    N1770    N        0.39547    0.07571    0.78443    1.000
    Si1771   Si       0.47714    0.04126    0.81604    1.000
    Si1772   Si       0.35233    0.15181    0.81907    1.000
    Si1773   Si       0.30333    0.14350    0.77544    1.000
    N1774    N        0.32175    0.17755    0.79648    1.000
    N1775    N        0.30314    0.23785    0.79790    1.000
    Si1776   Si       0.39477    0.22224    0.81789    1.000
    N1777    N        0.38870    0.20205    0.77922    1.000
    N1778    N        0.45194    0.17550    0.76296    1.000
    Si1779   Si       0.41015    0.16113    0.77243    1.000
    N1780    N        0.39543    0.14762    0.81285    1.000
    N1781    N        0.44612    0.24915    0.76137    1.000
    N1782    N        0.28454    0.09827    0.85724    1.000
    Si1783   Si       0.35339    0.03051    0.82371    1.000
    N1784    N        0.31712    0.05498    0.82181    1.000
    Si1785   Si       0.30519    0.09505    0.81888    1.000
    Si1786   Si       0.25570    0.12674    0.87712    1.000
    Si1787   Si       0.48152    0.11382    0.82149    1.000
    N1788    N        0.39454    0.03697    0.84151    1.000
    N1789    N        0.39804    0.09563    0.86042    1.000
    Si1790   Si       0.41267    0.07232    0.82453    1.000
    N1791    N        0.45648    0.07823    0.82051    1.000
    N1792    N        0.35901    0.21800    0.84530    1.000
    N1793    N        0.29130    0.19723    0.85772    1.000
    Si1794   Si       0.24959    0.20057    0.86684    1.000
    Si1795   Si       0.31941    0.20981    0.82717    1.000
    N1796    N        0.34244    0.14941    0.86053    1.000
    Si1797   Si       0.42245    0.16140    0.84611    1.000
    N1798    N        0.42783    0.20343    0.83759    1.000
    N1799    N        0.46564    0.15130    0.84001    1.000
    Si1800   Si       0.46062    0.21988    0.86278    1.000
    N1801    N        0.34657    0.10224    0.90757    1.000
    N1802    N        0.29003    0.06363    0.92126    1.000
    Si1803   Si       0.26887    0.02785    0.90572    1.000
    Si1804   Si       0.30597    0.09590    0.89799    1.000
    N1805    N        0.36843    0.02587    0.90056    1.000
    N1806    N        0.43533    0.02990    0.88811    1.000
    N1807    N        0.40386    0.07870    0.92360    1.000
    N1808    N        0.48385    0.09397    0.92129    1.000
    Si1809   Si       0.45544    0.01844    0.92370    1.000
    Si1810   Si       0.39815    0.05458    0.88536    1.000
    Si1811   Si       0.37469    0.12537    0.88319    1.000
    Si1812   Si       0.44455    0.08731    0.94010    1.000
    N1813    N        0.28696    0.13867    0.90532    1.000
    N1814    N        0.24891    0.22860    0.89865    1.000
    N1815    N        0.33336    0.19767    0.91090    1.000
    Si1816   Si       0.35692    0.22741    0.88962    1.000
    Si1817   Si       0.31327    0.16889    0.88568    1.000
    N1818    N        0.45761    0.20249    0.90286    1.000
    Si1819   Si       0.41520    0.19198    0.91620    1.000
    N1820    N        0.40465    0.15798    0.88694    1.000
    N1821    N        0.39556    0.22979    0.90986    1.000
    N1822    N        0.34605    0.04758    0.95897    1.000
    Si1823   Si       0.30364    0.04801    0.96099    1.000
    N1824    N        0.25433    0.11602    0.96510    1.000
    N1825    N        0.36253    0.11235    0.97528    1.000
    Si1826   Si       0.36414    0.08187    0.94062    1.000
    N1827    N        0.28216    0.01137    0.97090    1.000
    Si1828   Si       0.36782    0.02581    0.98769    1.000
    N1829    N        0.45117    0.04815    0.95671    1.000
    N1830    N        0.43132    0.11672    0.96934    1.000
    Si1831   Si       0.39970    0.10118    0.99409    1.000
    N1832    N        0.39901    0.05698    0.99938    1.000
    Si1833   Si       0.32020    0.20349    0.95229    1.000
    N1834    N        0.35351    0.22303    0.97275    1.000
    Si1835   Si       0.27364    0.14945    0.94640    1.000
    N1836    N        0.30964    0.16421    0.96752    1.000
    N1837    N        0.28737    0.23530    0.95419    1.000
    Si1838   Si       0.27374    0.25139    0.99325    1.000
    Si1839   Si       0.33861    0.14260    0.99355    1.000
    Si1840   Si       0.24306    0.22439    0.94442    1.000
    N1841    N        0.24202    0.17959    0.94544    1.000
    Si1842   Si       0.44357    0.15813    0.97624    1.000
    Si1843   Si       0.38323    0.19802    0.99020    1.000
    N1844    N        0.46239    0.24011    0.98910    1.000
    N1845    N        0.48308    0.16777    0.96170    1.000
    N1846    N        0.41173    0.18279    0.95924    1.000
    N1847    N        0.30442    0.31070    0.03312    1.000
    N1848    N        0.30761    0.37857    0.03779    1.000
    Si1849   Si       0.31994    0.27042    0.04181    1.000
    Si1850   Si       0.27424    0.32648    0.00675    1.000
    N1851    N        0.35941    0.26949    0.02131    1.000
    N1852    N        0.24260    0.33939    0.03492    1.000
    N1853    N        0.36002    0.33736    0.05604    1.000
    Si1854   Si       0.40152    0.33197    0.05536    1.000
    N1855    N        0.41493    0.36129    0.02456    1.000
    Si1856   Si       0.46442    0.30183    0.04485    1.000
    N1857    N        0.42006    0.29283    0.04466    1.000
    Si1858   Si       0.45707    0.37258    0.03021    1.000
    N1859    N        0.47961    0.34245    0.05104    1.000
    Si1860   Si       0.30272    0.45448    0.99976    1.000
    Si1861   Si       0.24447    0.46781    0.04304    1.000
    N1862    N        0.28106    0.44615    0.03584    1.000
    N1863    N        0.33878    0.47488    0.01440    1.000
    N1864    N        0.36079    0.40976    0.00661    1.000
    Si1865   Si       0.36268    0.44447    0.03539    1.000
    Si1866   Si       0.24371    0.38246    0.04511    1.000
    N1867    N        0.25393    0.51038    0.03117    1.000
    N1868    N        0.45903    0.41364    0.04882    1.000
    N1869    N        0.40376    0.45471    0.04360    1.000
    Si1870   Si       0.43562    0.43845    0.01978    1.000
    N1871    N        0.29865    0.33268    0.09892    1.000
    N1872    N        0.25408    0.28261    0.08006    1.000
    Si1873   Si       0.28941    0.28814    0.10389    1.000
    N1874    N        0.32293    0.26808    0.08416    1.000
    N1875    N        0.34819    0.37701    0.11619    1.000
    Si1876   Si       0.31799    0.34184    0.06086    1.000
    N1877    N        0.41051    0.33912    0.09672    1.000
    N1878    N        0.46943    0.29279    0.09063    1.000
    Si1879   Si       0.43407    0.30595    0.11779    1.000
    N1880    N        0.34084    0.42990    0.07198    1.000
    Si1881   Si       0.35397    0.42051    0.11258    1.000
    N1882    N        0.26666    0.39825    0.07898    1.000
    Si1883   Si       0.30074    0.41531    0.06094    1.000
    N1884    N        0.38922    0.49874    0.09595    1.000
    Si1885   Si       0.42237    0.48391    0.07287    1.000
    N1886    N        0.44454    0.45710    0.10221    1.000
    Si1887   Si       0.47267    0.42627    0.09068    1.000
    N1888    N        0.39716    0.41431    0.12026    1.000
    N1889    N        0.28398    0.37197    0.14887    1.000
    N1890    N        0.28492    0.27812    0.14623    1.000
    Si1891   Si       0.31870    0.35110    0.13152    1.000
    N1892    N        0.33933    0.32045    0.15680    1.000
    Si1893   Si       0.25570    0.37544    0.11542    1.000
    N1894    N        0.40367    0.28673    0.14282    1.000
    N1895    N        0.46220    0.32324    0.14768    1.000
    N1896    N        0.39666    0.35713    0.16418    1.000
    Si1897   Si       0.48296    0.36451    0.14556    1.000
    Si1898   Si       0.38062    0.31689    0.16920    1.000
    Si1899   Si       0.39104    0.36927    0.12086    1.000
    Si1900   Si       0.47958    0.29470    0.17712    1.000
    N1901    N        0.26504    0.43631    0.17301    1.000
    N1902    N        0.33461    0.43698    0.14481    1.000
    Si1903   Si       0.26377    0.48500    0.17516    1.000
    Si1904   Si       0.43302    0.43058    0.13905    1.000
    N1905    N        0.46368    0.40004    0.12531    1.000
    N1906    N        0.40994    0.46848    0.15986    1.000
    Si1907   Si       0.39062    0.50228    0.14022    1.000
    N1908    N        0.29240    0.31020    0.21293    1.000
    Si1909   Si       0.25776    0.28721    0.22717    1.000
    Si1910   Si       0.31295    0.29286    0.17496    1.000
    N1911    N        0.24184    0.37150    0.21311    1.000
    N1912    N        0.32891    0.26069    0.19858    1.000
    N1913    N        0.35030    0.35809    0.23644    1.000
    N1914    N        0.38901    0.30331    0.21099    1.000
    Si1915   Si       0.40988    0.26571    0.21485    1.000
    N1916    N        0.42189    0.36295    0.22869    1.000
    N1917    N        0.44770    0.26512    0.19070    1.000
    Si1918   Si       0.40800    0.38659    0.19468    1.000
    Si1919   Si       0.34029    0.50554    0.19427    1.000
    Si1920   Si       0.27096    0.38900    0.18568    1.000
    N1921    N        0.30482    0.48111    0.19273    1.000
    N1922    N        0.30868    0.40453    0.20508    1.000
    Si1923   Si       0.34469    0.40112    0.23180    1.000
    Si1924   Si       0.30825    0.43918    0.17944    1.000
    N1925    N        0.37652    0.41558    0.20680    1.000
    N1926    N        0.37215    0.48590    0.21575    1.000
    Si1927   Si       0.48057    0.41335    0.19717    1.000
    Si1928   Si       0.39806    0.45340    0.19941    1.000
    N1929    N        0.43855    0.41551    0.18113    1.000
    N1930    N        0.42207    0.45631    0.23626    1.000
    N1931    N        0.32909    0.29548    0.26857    1.000
    N1932    N        0.28631    0.35338    0.26551    1.000
    Si1933   Si       0.24617    0.35117    0.25140    1.000
    Si1934   Si       0.31462    0.32989    0.24528    1.000
    Si1935   Si       0.38941    0.33611    0.24066    1.000
    Si1936   Si       0.45734    0.37044    0.25651    1.000
    N1937    N        0.39327    0.31929    0.27904    1.000
    N1938    N        0.45672    0.29510    0.28364    1.000
    N1939    N        0.33185    0.41725    0.27143    1.000
    N1940    N        0.26343    0.45881    0.27372    1.000
    Si1941   Si       0.30711    0.45511    0.28669    1.000
    N1942    N        0.32271    0.49550    0.28606    1.000
    Si1943   Si       0.45366    0.44082    0.26171    1.000
    Si1944   Si       0.39844    0.49142    0.24917    1.000
    N1945    N        0.48242    0.47344    0.26695    1.000
    N1946    N        0.47357    0.40954    0.24099    1.000
    N1947    N        0.39448    0.48718    0.29167    1.000
    N1948    N        0.35624    0.31432    0.33890    1.000
    Si1949   Si       0.36046    0.29728    0.29871    1.000
    N1950    N        0.31253    0.37709    0.33736    1.000
    N1951    N        0.24144    0.26127    0.30633    1.000
    Si1952   Si       0.42790    0.31923    0.30411    1.000
    N1953    N        0.42835    0.30227    0.34495    1.000
    N1954    N        0.44091    0.36340    0.29636    1.000
    N1955    N        0.24743    0.39957    0.33857    1.000
    Si1956   Si       0.33915    0.40379    0.31205    1.000
    N1957    N        0.32414    0.44392    0.32757    1.000
    N1958    N        0.37432    0.38171    0.32393    1.000
    N1959    N        0.45003    0.48308    0.34915    1.000
    N1960    N        0.39104    0.45176    0.34984    1.000
    Si1961   Si       0.48757    0.49697    0.33369    1.000
    Si1962   Si       0.42092    0.46558    0.32244    1.000
    N1963    N        0.43379    0.42995    0.30103    1.000
    Si1964   Si       0.41849    0.39386    0.31866    1.000
    N1965    N        0.26690    0.34630    0.37957    1.000
    N1966    N        0.25853    0.27744    0.37261    1.000
    N1967    N        0.33177    0.35562    0.39503    1.000
    Si1968   Si       0.24200    0.31770    0.35986    1.000
    Si1969   Si       0.35108    0.35646    0.35350    1.000
    Si1970   Si       0.27980    0.38458    0.36457    1.000
    N1971    N        0.37155    0.27794    0.40121    1.000
    Si1972   Si       0.38902    0.30485    0.36944    1.000
    Si1973   Si       0.43096    0.36047    0.39137    1.000
    N1974    N        0.46885    0.33983    0.38501    1.000
    N1975    N        0.39182    0.34235    0.38733    1.000
    N1976    N        0.48062    0.26244    0.36575    1.000
    Si1977   Si       0.47063    0.30530    0.35605    1.000
    N1978    N        0.25739    0.46370    0.36462    1.000
    N1979    N        0.28120    0.41104    0.39978    1.000
    N1980    N        0.33071    0.46311    0.39041    1.000
    Si1981   Si       0.28931    0.45313    0.39003    1.000
    Si1982   Si       0.24746    0.50473    0.35629    1.000
    Si1983   Si       0.35170    0.46705    0.35272    1.000
    Si1984   Si       0.40385    0.42585    0.38135    1.000
    N1985    N        0.42931    0.45085    0.40810    1.000
    N1986    N        0.42776    0.39375    0.36115    1.000
    Si1987   Si       0.45176    0.48480    0.39164    1.000
    N1988    N        0.37699    0.40771    0.41035    1.000
    N1989    N        0.27808    0.35812    0.44446    1.000
    Si1990   Si       0.34998    0.29245    0.43700    1.000
    N1991    N        0.30679    0.29589    0.42360    1.000
    Si1992   Si       0.26877    0.27545    0.41575    1.000
    Si1993   Si       0.29624    0.33725    0.41244    1.000
    Si1994   Si       0.36603    0.36497    0.41973    1.000
    N1995    N        0.36915    0.33216    0.45117    1.000
    N1996    N        0.43377    0.38063    0.42853    1.000
    Si1997   Si       0.26585    0.39890    0.43941    1.000
    N1998    N        0.33731    0.46423    0.45950    1.000
    Si1999   Si       0.33879    0.49121    0.42335    1.000
    N2000    N        0.28109    0.47850    0.42735    1.000
    Si2001   Si       0.35915    0.42730    0.44710    1.000
    N2002    N        0.34418    0.38763    0.46074    1.000
    Si2003   Si       0.29364    0.46174    0.46619    1.000
    N2004    N        0.39652    0.43361    0.46553    1.000
    Si2005   Si       0.43113    0.42146    0.44023    1.000
    N2006    N        0.47137    0.43373    0.45387    1.000
    N2007    N        0.28130    0.31141    0.49839    1.000
    Si2008   Si       0.26519    0.27144    0.50928    1.000
    N2009    N        0.34865    0.32747    0.51633    1.000
    N2010    N        0.34759    0.26617    0.47333    1.000
    Si2011   Si       0.36043    0.35830    0.48620    1.000
    Si2012   Si       0.25623    0.32832    0.46915    1.000
    Si2013   Si       0.30617    0.32877    0.53003    1.000
    N2014    N        0.29490    0.37006    0.52969    1.000
    N2015    N        0.48138    0.27284    0.47273    1.000
    N2016    N        0.42530    0.30449    0.51275    1.000
    Si2017   Si       0.44776    0.26778    0.50147    1.000
    Si2018   Si       0.35588    0.48626    0.49366    1.000
    Si2019   Si       0.27480    0.40791    0.51533    1.000
    N2020    N        0.26728    0.48704    0.48857    1.000
    N2021    N        0.27871    0.42273    0.47503    1.000
    N2022    N        0.43799    0.42621    0.51931    1.000
    N2023    N        0.38107    0.38697    0.51827    1.000
    Si2024   Si       0.39606    0.42515    0.50733    1.000
    Si2025   Si       0.46678    0.44640    0.49505    1.000
    N2026    N        0.45246    0.48793    0.49800    1.000
    N2027    N        0.37173    0.45849    0.52339    1.000
    N2028    N        0.29839    0.31215    0.57174    1.000
    Si2029   Si       0.30402    0.26648    0.57934    1.000
    N2030    N        0.45928    0.31413    0.58558    1.000
    N2031    N        0.37010    0.27167    0.54823    1.000
    N2032    N        0.40234    0.33701    0.56340    1.000
    Si2033   Si       0.44637    0.32948    0.54464    1.000
    N2034    N        0.46351    0.36830    0.53836    1.000
    Si2035   Si       0.38222    0.37823    0.56387    1.000
    Si2036   Si       0.38390    0.30993    0.53317    1.000
    Si2037   Si       0.48611    0.28579    0.56168    1.000
    Si2038   Si       0.30448    0.39371    0.56742    1.000
    N2039    N        0.27362    0.48968    0.56376    1.000
    N2040    N        0.29570    0.43146    0.54596    1.000
    Si2041   Si       0.30660    0.46481    0.57349    1.000
    N2042    N        0.34220    0.48978    0.58040    1.000
    N2043    N        0.34575    0.39430    0.58369    1.000
    Si2044   Si       0.43742    0.50001    0.57575    1.000
    N2045    N        0.41455    0.46481    0.58454    1.000
    N2046    N        0.48193    0.42598    0.57637    1.000
    N2047    N        0.41575    0.40055    0.58263    1.000
    Si2048   Si       0.38009    0.47843    0.55975    1.000
    Si2049   Si       0.44891    0.40767    0.55473    1.000
    Si2050   Si       0.28389    0.33597    0.60387    1.000
    Si2051   Si       0.24855    0.28322    0.63537    1.000
    N2052    N        0.27667    0.37986    0.59818    1.000
    N2053    N        0.30973    0.33205    0.63983    1.000
    N2054    N        0.24265    0.32112    0.61298    1.000
    N2055    N        0.26605    0.26090    0.60324    1.000
    N2056    N        0.33748    0.25879    0.60741    1.000
    N2057    N        0.43512    0.33892    0.63768    1.000
    Si2058   Si       0.41717    0.32124    0.60202    1.000
    N2059    N        0.39765    0.28682    0.61776    1.000
    Si2060   Si       0.47724    0.33518    0.62217    1.000
    Si2061   Si       0.37749    0.26118    0.59079    1.000
    Si2062   Si       0.24237    0.40616    0.61327    1.000
    N2063    N        0.24266    0.48814    0.62843    1.000
    Si2064   Si       0.33841    0.42231    0.61828    1.000
    N2065    N        0.30366    0.44754    0.61285    1.000
    Si2066   Si       0.27299    0.46072    0.64286    1.000
    Si2067   Si       0.41470    0.43189    0.61244    1.000
    N2068    N        0.45299    0.42675    0.63876    1.000
    N2069    N        0.37695    0.43318    0.63265    1.000
    Si2070   Si       0.48907    0.41665    0.61846    1.000
    N2071    N        0.26706    0.29270    0.67230    1.000
    Si2072   Si       0.30312    0.31634    0.68288    1.000
    Si2073   Si       0.33977    0.36187    0.65843    1.000
    N2074    N        0.32333    0.35244    0.69860    1.000
    N2075    N        0.38520    0.30841    0.68221    1.000
    Si2076   Si       0.41145    0.34336    0.67474    1.000
    Si2077   Si       0.46823    0.30557    0.68818    1.000
    Si2078   Si       0.40008    0.27567    0.65874    1.000
    N2079    N        0.44314    0.27293    0.67134    1.000
    N2080    N        0.38124    0.37523    0.66698    1.000
    N2081    N        0.44276    0.33675    0.70341    1.000
    Si2082   Si       0.32423    0.50761    0.66984    1.000
    Si2083   Si       0.24496    0.42028    0.69591    1.000
    N2084    N        0.24851    0.42553    0.65358    1.000
    N2085    N        0.29170    0.47698    0.67635    1.000
    N2086    N        0.35029    0.47120    0.68262    1.000
    N2087    N        0.32492    0.40393    0.65795    1.000
    Si2088   Si       0.31864    0.45119    0.70129    1.000
    N2089    N        0.41983    0.50281    0.66630    1.000
    N2090    N        0.47380    0.46313    0.69337    1.000
    Si2091   Si       0.39359    0.47924    0.69029    1.000
    Si2092   Si       0.36860    0.41977    0.67296    1.000
    Si2093   Si       0.44967    0.42899    0.68341    1.000
    N2094    N        0.40730    0.43620    0.69303    1.000
    Si2095   Si       0.45855    0.50338    0.68469    1.000
    N2096    N        0.27376    0.32672    0.72581    1.000
    N2097    N        0.35734    0.32846    0.74690    1.000
    Si2098   Si       0.31239    0.33368    0.74861    1.000
    N2099    N        0.31349    0.37632    0.75915    1.000
    N2100    N        0.32598    0.28318    0.70314    1.000
    Si2101   Si       0.36380    0.29653    0.71798    1.000
    N2102    N        0.38142    0.26431    0.74449    1.000
    N2103    N        0.40446    0.37913    0.73376    1.000
    Si2104   Si       0.44742    0.37050    0.73056    1.000
    Si2105   Si       0.48554    0.26593    0.75893    1.000
    N2106    N        0.49066    0.27904    0.71659    1.000
    N2107    N        0.35020    0.41848    0.71578    1.000
    Si2108   Si       0.31667    0.38962    0.71863    1.000
    N2109    N        0.30280    0.46992    0.74114    1.000
    Si2110   Si       0.27294    0.44018    0.75019    1.000
    N2111    N        0.28337    0.41702    0.71261    1.000
    N2112    N        0.39791    0.49385    0.73302    1.000
    N2113    N        0.47127    0.39958    0.70811    1.000
    Si2114   Si       0.39070    0.41825    0.73035    1.000
    N2115    N        0.30835    0.31130    0.78613    1.000
    Si2116   Si       0.28516    0.27842    0.80268    1.000
    N2117    N        0.24304    0.27351    0.79472    1.000
    N2118    N        0.45862    0.37014    0.77331    1.000
    N2119    N        0.38353    0.36540    0.80147    1.000
    Si2120   Si       0.45601    0.33085    0.79725    1.000
    Si2121   Si       0.41212    0.27395    0.77384    1.000
    N2122    N        0.42143    0.31651    0.77102    1.000
    N2123    N        0.48660    0.30100    0.78758    1.000
    N2124    N        0.40114    0.26520    0.81532    1.000
    Si2125   Si       0.39199    0.34752    0.76262    1.000
    Si2126   Si       0.31116    0.39636    0.79586    1.000
    N2127    N        0.27701    0.42293    0.79028    1.000
    N2128    N        0.36020    0.48893    0.79699    1.000
    N2129    N        0.34479    0.41752    0.81425    1.000
    N2130    N        0.24265    0.47781    0.81037    1.000
    N2131    N        0.39336    0.43469    0.76938    1.000
    Si2132   Si       0.38699    0.41006    0.80291    1.000
    N2133    N        0.48118    0.43127    0.81714    1.000
    Si2134   Si       0.49044    0.39153    0.79578    1.000
    Si2135   Si       0.39648    0.47796    0.77382    1.000
    N2136    N        0.43274    0.48502    0.79856    1.000
    N2137    N        0.35299    0.32268    0.84507    1.000
    N2138    N        0.28816    0.29641    0.84186    1.000
    Si2139   Si       0.25730    0.37347    0.84376    1.000
    Si2140   Si       0.26393    0.30483    0.87638    1.000
    Si2141   Si       0.31570    0.32814    0.82631    1.000
    N2142    N        0.29802    0.36767    0.82702    1.000
    N2143    N        0.26042    0.34822    0.87903    1.000
    N2144    N        0.45730    0.26232    0.85750    1.000
    Si2145   Si       0.39052    0.34445    0.83906    1.000
    Si2146   Si       0.42256    0.28637    0.84620    1.000
    N2147    N        0.43196    0.32976    0.83598    1.000
    Si2148   Si       0.48306    0.35595    0.86098    1.000
    N2149    N        0.39176    0.37265    0.87360    1.000
    N2150    N        0.25391    0.41510    0.85461    1.000
    N2151    N        0.30579    0.46658    0.83818    1.000
    N2152    N        0.35987    0.47035    0.87245    1.000
    Si2153   Si       0.34766    0.45894    0.82645    1.000
    Si2154   Si       0.26852    0.44515    0.82568    1.000
    N2155    N        0.41218    0.42757    0.83582    1.000
    N2156    N        0.45853    0.39109    0.87235    1.000
    Si2157   Si       0.41803    0.40714    0.87269    1.000
    Si2158   Si       0.44562    0.45582    0.82965    1.000
    N2159    N        0.44842    0.47990    0.86545    1.000
    N2160    N        0.27405    0.29342    0.91738    1.000
    N2161    N        0.34669    0.33093    0.91517    1.000
    Si2162   Si       0.30610    0.26813    0.92984    1.000
    N2163    N        0.33633    0.26506    0.89817    1.000
    Si2164   Si       0.35459    0.30217    0.88501    1.000
    Si2165   Si       0.37354    0.36707    0.91377    1.000
    Si2166   Si       0.40844    0.27042    0.91780    1.000
    N2167    N        0.45026    0.27920    0.92945    1.000
    Si2168   Si       0.48713    0.29826    0.91905    1.000
    N2169    N        0.39623    0.29083    0.88198    1.000
    N2170    N        0.48453    0.31793    0.88031    1.000
    N2171    N        0.34389    0.39476    0.92448    1.000
    N2172    N        0.29610    0.43840    0.90106    1.000
    Si2173   Si       0.25451    0.42659    0.89562    1.000
    N2174    N        0.24944    0.39529    0.92772    1.000
    Si2175   Si       0.31849    0.42583    0.93415    1.000
    Si2176   Si       0.31495    0.47080    0.87971    1.000
    N2177    N        0.41183    0.42876    0.90989    1.000
    Si2178   Si       0.49162    0.40992    0.89553    1.000
    N2179    N        0.40067    0.49913    0.91359    1.000
    N2180    N        0.47220    0.49432    0.92655    1.000
    Si2181   Si       0.44007    0.50770    0.89778    1.000
    N2182    N        0.47399    0.40999    0.93504    1.000
    Si2183   Si       0.38143    0.45956    0.91052    1.000
    N2184    N        0.32855    0.28854    0.96277    1.000
    N2185    N        0.29199    0.35257    0.97647    1.000
    N2186    N        0.25911    0.29086    0.98533    1.000
    N2187    N        0.35578    0.35357    0.98331    1.000
    Si2188   Si       0.33003    0.33274    0.95552    1.000
    Si2189   Si       0.36078    0.26573    0.97810    1.000
    Si2190   Si       0.24013    0.29827    0.94603    1.000
    Si2191   Si       0.32595    0.38302    0.99814    1.000
    Si2192   Si       0.44239    0.27580    0.97280    1.000
    N2193    N        0.39977    0.27963    0.96172    1.000
    N2194    N        0.48219    0.37684    0.99164    1.000
    Si2195   Si       0.39261    0.38158    0.98940    1.000
    N2196    N        0.46199    0.30685    0.99702    1.000
    N2197    N        0.40583    0.37014    0.94424    1.000
    Si2198   Si       0.26762    0.39012    0.96757    1.000
    N2199    N        0.28980    0.49031    0.97482    1.000
    Si2200   Si       0.32099    0.49660    0.94626    1.000
    N2201    N        0.30186    0.41749    0.97482    1.000
    N2202    N        0.34679    0.46161    0.94034    1.000
    Si2203   Si       0.43088    0.40785    0.94318    1.000
    N2204    N        0.42194    0.41420    0.98495    1.000
    Si2205   Si       0.46174    0.50059    0.96877    1.000
    N2206    N        0.46303    0.46469    0.99805    1.000
    N2207    N        0.30887    0.54323    0.01988    1.000
    N2208    N        0.25877    0.58542    0.02953    1.000
    Si2209   Si       0.34295    0.51879    0.00785    1.000
    Si2210   Si       0.28927    0.52966    0.05547    1.000
    Si2211   Si       0.28918    0.57777    0.99973    1.000
    Si2212   Si       0.48579    0.51916    0.03796    1.000
    N2213    N        0.37522    0.52886    0.03483    1.000
    N2214    N        0.41914    0.57997    0.02309    1.000
    Si2215   Si       0.41494    0.53558    0.02011    1.000
    N2216    N        0.47722    0.62176    0.04491    1.000
    Si2217   Si       0.43470    0.60651    0.05436    1.000
    N2218    N        0.44132    0.51440    0.04784    1.000
    Si2219   Si       0.31565    0.63463    0.03436    1.000
    N2220    N        0.34428    0.66806    0.03820    1.000
    Si2221   Si       0.33986    0.71002    0.05241    1.000
    N2222    N        0.27627    0.65145    0.04413    1.000
    Si2223   Si       0.28142    0.74190    0.01570    1.000
    Si2224   Si       0.25190    0.66575    0.00911    1.000
    N2225    N        0.31081    0.74363    0.05002    1.000
    N2226    N        0.40500    0.68583    0.99859    1.000
    Si2227   Si       0.38416    0.65862    0.02516    1.000
    N2228    N        0.37413    0.73339    0.03096    1.000
    N2229    N        0.48902    0.69002    0.02987    1.000
    N2230    N        0.41260    0.64586    0.05552    1.000
    N2231    N        0.26202    0.54975    0.08499    1.000
    N2232    N        0.25871    0.61495    0.10250    1.000
    Si2233   Si       0.27518    0.59070    0.07091    1.000
    Si2234   Si       0.33941    0.59446    0.10156    1.000
    N2235    N        0.32313    0.52082    0.08435    1.000
    N2236    N        0.31851    0.60185    0.06417    1.000
    Si2237   Si       0.36460    0.53002    0.07678    1.000
    N2238    N        0.37340    0.56924    0.09651    1.000
    Si2239   Si       0.48290    0.57528    0.09193    1.000
    N2240    N        0.43988    0.58565    0.09267    1.000
    N2241    N        0.34224    0.70323    0.09485    1.000
    Si2242   Si       0.25706    0.65653    0.08312    1.000
    N2243    N        0.28079    0.67984    0.11131    1.000
    Si2244   Si       0.39719    0.74616    0.06391    1.000
    N2245    N        0.46210    0.66764    0.09876    1.000
    N2246    N        0.41175    0.71237    0.08609    1.000
    Si2247   Si       0.41854    0.66932    0.09062    1.000
    Si2248   Si       0.48793    0.66038    0.06346    1.000
    Si2249   Si       0.37864    0.70990    0.11810    1.000
    Si2250   Si       0.31520    0.52832    0.12824    1.000
    Si2251   Si       0.31422    0.60896    0.15524    1.000
    N2252    N        0.31486    0.57332    0.13237    1.000
    Si2253   Si       0.24782    0.61862    0.14405    1.000
    N2254    N        0.33717    0.63151    0.12292    1.000
    Si2255   Si       0.24525    0.54405    0.12822    1.000
    N2256    N        0.27400    0.51524    0.14339    1.000
    N2257    N        0.28119    0.63250    0.16672    1.000
    N2258    N        0.34815    0.50967    0.15131    1.000
    N2259    N        0.48439    0.54339    0.12115    1.000
    N2260    N        0.40554    0.60281    0.15367    1.000
    N2261    N        0.41935    0.53632    0.14131    1.000
    Si2262   Si       0.45890    0.53376    0.15592    1.000
    Si2263   Si       0.40825    0.57375    0.11991    1.000
    N2264    N        0.32643    0.68660    0.16236    1.000
    Si2265   Si       0.32212    0.67495    0.12051    1.000
    Si2266   Si       0.37404    0.63584    0.15761    1.000
    Si2267   Si       0.42221    0.73401    0.16210    1.000
    N2268    N        0.39198    0.66441    0.12530    1.000
    N2269    N        0.37741    0.73000    0.15534    1.000
    Si2270   Si       0.47310    0.67489    0.13969    1.000
    N2271    N        0.44166    0.69447    0.16585    1.000
    N2272    N        0.48948    0.64039    0.15873    1.000
    N2273    N        0.33487    0.54569    0.20922    1.000
    Si2274   Si       0.35198    0.58332    0.21883    1.000
    N2275    N        0.34653    0.61000    0.18394    1.000
    Si2276   Si       0.42252    0.59504    0.19355    1.000
    N2277    N        0.45495    0.56668    0.18924    1.000
    N2278    N        0.39631    0.58381    0.22736    1.000
    N2279    N        0.44387    0.63112    0.20733    1.000
    Si2280   Si       0.48670    0.63539    0.20322    1.000
    N2281    N        0.26171    0.69313    0.19768    1.000
    Si2282   Si       0.29649    0.66913    0.18924    1.000
    N2283    N        0.31834    0.66928    0.22690    1.000
    Si2284   Si       0.36061    0.70168    0.18542    1.000
    N2285    N        0.36469    0.72195    0.22412    1.000
    Si2286   Si       0.42516    0.66976    0.20015    1.000
    N2287    N        0.42565    0.74928    0.20257    1.000
    N2288    N        0.38441    0.66632    0.19099    1.000
    N2289    N        0.32987    0.59987    0.25337    1.000
    N2290    N        0.27759    0.53277    0.25208    1.000
    Si2291   Si       0.34166    0.58023    0.29049    1.000
    N2292    N        0.26571    0.63111    0.25844    1.000
    Si2293   Si       0.29265    0.52668    0.29201    1.000
    N2294    N        0.36867    0.54739    0.27846    1.000
    Si2295   Si       0.40681    0.55917    0.26184    1.000
    N2296    N        0.42906    0.52413    0.24835    1.000
    Si2297   Si       0.47056    0.51482    0.26204    1.000
    Si2298   Si       0.30779    0.63496    0.25103    1.000
    Si2299   Si       0.27070    0.73576    0.26861    1.000
    Si2300   Si       0.33930    0.69724    0.25248    1.000
    N2301    N        0.31350    0.73180    0.25949    1.000
    N2302    N        0.25376    0.69964    0.28431    1.000
    Si2303   Si       0.27121    0.66189    0.29194    1.000
    N2304    N        0.31367    0.65448    0.29194    1.000
    N2305    N        0.24946    0.75073    0.23360    1.000
    N2306    N        0.41689    0.74071    0.27737    1.000
    N2307    N        0.43623    0.68757    0.23979    1.000
    N2308    N        0.48373    0.73544    0.24578    1.000
    Si2309   Si       0.48003    0.69246    0.24228    1.000
    N2310    N        0.37254    0.67897    0.27715    1.000
    Si2311   Si       0.41233    0.69466    0.27522    1.000
    Si2312   Si       0.39818    0.75000    0.23657    1.000
    N2313    N        0.31059    0.55794    0.31333    1.000
    N2314    N        0.25665    0.51302    0.31398    1.000
    N2315    N        0.35537    0.51088    0.34350    1.000
    N2316    N        0.36528    0.60882    0.31208    1.000
    Si2317   Si       0.35923    0.51031    0.30098    1.000
    N2318    N        0.47241    0.52699    0.30408    1.000
    Si2319   Si       0.40088    0.59436    0.33288    1.000
    Si2320   Si       0.46507    0.56909    0.31335    1.000
    N2321    N        0.48467    0.60759    0.30752    1.000
    N2322    N        0.42427    0.62940    0.34553    1.000
    N2323    N        0.42486    0.57846    0.29744    1.000
    Si2324   Si       0.46628    0.61828    0.34569    1.000
    N2325    N        0.25532    0.64226    0.32684    1.000
    Si2326   Si       0.35475    0.65197    0.30608    1.000
    N2327    N        0.36273    0.66936    0.34526    1.000
    Si2328   Si       0.40808    0.66869    0.34771    1.000
    N2329    N        0.48885    0.72883    0.31754    1.000
    Si2330   Si       0.44328    0.73254    0.31809    1.000
    N2331    N        0.42782    0.69030    0.31660    1.000
    N2332    N        0.33427    0.56743    0.37773    1.000
    N2333    N        0.27752    0.52805    0.37667    1.000
    N2334    N        0.27776    0.59731    0.36616    1.000
    Si2335   Si       0.31012    0.59691    0.40122    1.000
    Si2336   Si       0.29777    0.56096    0.35419    1.000
    Si2337   Si       0.36747    0.54082    0.37435    1.000
    N2338    N        0.46881    0.57611    0.35860    1.000
    Si2339   Si       0.43600    0.56696    0.39587    1.000
    N2340    N        0.40384    0.56124    0.36085    1.000
    N2341    N        0.29170    0.75875    0.36009    1.000
    N2342    N        0.31931    0.64018    0.39013    1.000
    Si2343   Si       0.33465    0.68523    0.37545    1.000
    Si2344   Si       0.28137    0.64536    0.36298    1.000
    Si2345   Si       0.26777    0.72120    0.36831    1.000
    N2346    N        0.35299    0.72739    0.37314    1.000
    N2347    N        0.25602    0.71105    0.40849    1.000
    N2348    N        0.29401    0.68791    0.35881    1.000
    N2349    N        0.24561    0.64636    0.39252    1.000
    N2350    N        0.48772    0.63704    0.37875    1.000
    N2351    N        0.41277    0.68837    0.38693    1.000
    N2352    N        0.42424    0.74540    0.35545    1.000
    Si2353   Si       0.39552    0.72822    0.38249    1.000
    N2354    N        0.33685    0.60227    0.43787    1.000
    N2355    N        0.28067    0.57578    0.42881    1.000
    N2356    N        0.31926    0.52879    0.44124    1.000
    Si2357   Si       0.31476    0.56950    0.45716    1.000
    Si2358   Si       0.27951    0.52371    0.41967    1.000
    Si2359   Si       0.38213    0.60469    0.44066    1.000
    Si2360   Si       0.40537    0.52508    0.43522    1.000
    N2361    N        0.40247    0.56961    0.42650    1.000
    N2362    N        0.46113    0.59139    0.42958    1.000
    Si2363   Si       0.48116    0.63021    0.42000    1.000
    N2364    N        0.37540    0.51166    0.40671    1.000
    N2365    N        0.44018    0.52294    0.40637    1.000
    Si2366   Si       0.31829    0.72535    0.44498    1.000
    Si2367   Si       0.33337    0.64965    0.43547    1.000
    N2368    N        0.32830    0.69220    0.42037    1.000
    N2369    N        0.24286    0.65945    0.46401    1.000
    Si2370   Si       0.45781    0.69032    0.46625    1.000
    Si2371   Si       0.41273    0.67144    0.42737    1.000
    N2372    N        0.37791    0.64737    0.43183    1.000
    N2373    N        0.45222    0.65572    0.44071    1.000
    Si2374   Si       0.39266    0.74030    0.45582    1.000
    N2375    N        0.41708    0.70580    0.45527    1.000
    N2376    N        0.39364    0.75627    0.41535    1.000
    N2377    N        0.32237    0.58026    0.49853    1.000
    Si2378   Si       0.31215    0.62006    0.51092    1.000
    N2379    N        0.32662    0.51171    0.51509    1.000
    N2380    N        0.26060    0.54482    0.52543    1.000
    Si2381   Si       0.28272    0.50802    0.52347    1.000
    N2382    N        0.38766    0.50864    0.47524    1.000
    Si2383   Si       0.41821    0.51562    0.50340    1.000
    N2384    N        0.40148    0.60479    0.47995    1.000
    N2385    N        0.46215    0.59974    0.50805    1.000
    Si2386   Si       0.47750    0.52079    0.48266    1.000
    N2387    N        0.44106    0.54462    0.47788    1.000
    Si2388   Si       0.38349    0.61534    0.51876    1.000
    Si2389   Si       0.44079    0.58808    0.47083    1.000
    Si2390   Si       0.35749    0.72964    0.51603    1.000
    Si2391   Si       0.27651    0.67698    0.48639    1.000
    Si2392   Si       0.25916    0.74858    0.48663    1.000
    N2393    N        0.31211    0.65000    0.47699    1.000
    N2394    N        0.35365    0.73132    0.47105    1.000
    N2395    N        0.28560    0.71687    0.47173    1.000
    N2396    N        0.46029    0.69112    0.50965    1.000
    N2397    N        0.46722    0.75813    0.52121    1.000
    N2398    N        0.39982    0.72082    0.52522    1.000
    Si2399   Si       0.48897    0.72451    0.50550    1.000
    Si2400   Si       0.42511    0.75638    0.51843    1.000
    Si2401   Si       0.27695    0.57271    0.55498    1.000
    N2402    N        0.31430    0.55535    0.56665    1.000
    N2403    N        0.27838    0.61217    0.53601    1.000
    Si2404   Si       0.33786    0.55089    0.52887    1.000
    Si2405   Si       0.40124    0.55222    0.56636    1.000
    N2406    N        0.43323    0.58183    0.57260    1.000
    Si2407   Si       0.44668    0.61445    0.54634    1.000
    N2408    N        0.40448    0.51348    0.54412    1.000
    N2409    N        0.37628    0.57379    0.53424    1.000
    N2410    N        0.48076    0.51280    0.57836    1.000
    N2411    N        0.34733    0.63518    0.53302    1.000
    Si2412   Si       0.34092    0.66715    0.56243    1.000
    N2413    N        0.33157    0.70169    0.53718    1.000
    Si2414   Si       0.29164    0.71763    0.54750    1.000
    Si2415   Si       0.24926    0.64373    0.54599    1.000
    N2416    N        0.27016    0.68112    0.53216    1.000
    N2417    N        0.27183    0.74951    0.52792    1.000
    N2418    N        0.47291    0.64087    0.56517    1.000
    Si2419   Si       0.42575    0.68579    0.53571    1.000
    N2420    N        0.41376    0.64252    0.53589    1.000
    N2421    N        0.43714    0.69792    0.57782    1.000
    Si2422   Si       0.27207    0.55932    0.62979    1.000
    N2423    N        0.30430    0.52984    0.63433    1.000
    Si2424   Si       0.33387    0.52964    0.59942    1.000
    N2425    N        0.28228    0.60209    0.63614    1.000
    N2426    N        0.25345    0.56309    0.59064    1.000
    N2427    N        0.37111    0.54960    0.60062    1.000
    Si2428   Si       0.47164    0.53553    0.61559    1.000
    N2429    N        0.42842    0.52860    0.60694    1.000
    Si2430   Si       0.44145    0.59129    0.61550    1.000
    N2431    N        0.48491    0.57801    0.61792    1.000
    Si2432   Si       0.39918    0.53738    0.63915    1.000
    Si2433   Si       0.27665    0.64116    0.61488    1.000
    Si2434   Si       0.34105    0.67043    0.62373    1.000
    N2435    N        0.31406    0.65315    0.59517    1.000
    Si2436   Si       0.30732    0.74427    0.63323    1.000
    N2437    N        0.24188    0.63927    0.58970    1.000
    N2438    N        0.29119    0.73523    0.58778    1.000
    N2439    N        0.36964    0.68443    0.59258    1.000
    N2440    N        0.26157    0.66944    0.64538    1.000
    N2441    N        0.43358    0.63436    0.62083    1.000
    N2442    N        0.39386    0.75449    0.61093    1.000
    Si2443   Si       0.45578    0.66412    0.59870    1.000
    Si2444   Si       0.40486    0.71148    0.60694    1.000
    N2445    N        0.48962    0.67438    0.62391    1.000
    Si2446   Si       0.29673    0.60762    0.67656    1.000
    N2447    N        0.33670    0.59313    0.68808    1.000
    N2448    N        0.36327    0.53296    0.66390    1.000
    Si2449   Si       0.35411    0.55637    0.70064    1.000
    N2450    N        0.23991    0.54933    0.65924    1.000
    N2451    N        0.41995    0.57637    0.65055    1.000
    Si2452   Si       0.41937    0.59200    0.69106    1.000
    N2453    N        0.48771    0.51615    0.65199    1.000
    Si2454   Si       0.34954    0.63407    0.68980    1.000
    N2455    N        0.26333    0.74151    0.65444    1.000
    N2456    N        0.30849    0.64981    0.68250    1.000
    Si2457   Si       0.29097    0.68942    0.67139    1.000
    Si2458   Si       0.26835    0.75254    0.69604    1.000
    N2459    N        0.36677    0.64623    0.65045    1.000
    N2460    N        0.34200    0.75962    0.66437    1.000
    N2461    N        0.32113    0.70334    0.64348    1.000
    Si2462   Si       0.46665    0.69697    0.65693    1.000
    Si2463   Si       0.41006    0.65471    0.65370    1.000
    Si2464   Si       0.48833    0.75671    0.69191    1.000
    N2465    N        0.47902    0.66590    0.68385    1.000
    N2466    N        0.41607    0.63665    0.69208    1.000
    N2467    N        0.48579    0.73578    0.65301    1.000
    N2468    N        0.42388    0.69525    0.64307    1.000
    Si2469   Si       0.26895    0.62086    0.74033    1.000
    N2470    N        0.25324    0.53084    0.72910    1.000
    N2471    N        0.32185    0.52922    0.71258    1.000
    Si2472   Si       0.29306    0.51256    0.74232    1.000
    N2473    N        0.26743    0.59675    0.70504    1.000
    N2474    N        0.30995    0.61819    0.75466    1.000
    N2475    N        0.46139    0.52206    0.72336    1.000
    Si2476   Si       0.41929    0.53240    0.73440    1.000
    N2477    N        0.39725    0.56375    0.71402    1.000
    N2478    N        0.46305    0.59669    0.70279    1.000
    N2479    N        0.35112    0.75138    0.73887    1.000
    N2480    N        0.25737    0.66320    0.73344    1.000
    Si2481   Si       0.28024    0.69799    0.74637    1.000
    N2482    N        0.35956    0.65721    0.72553    1.000
    Si2483   Si       0.36084    0.70571    0.74105    1.000
    N2484    N        0.28817    0.71572    0.70684    1.000
    Si2485   Si       0.40227    0.66232    0.73555    1.000
    Si2486   Si       0.46596    0.70271    0.75025    1.000
    N2487    N        0.46157    0.73028    0.71443    1.000
    N2488    N        0.44881    0.66321    0.74475    1.000
    Si2489   Si       0.41991    0.74429    0.70931    1.000
    N2490    N        0.39998    0.70723    0.71644    1.000
    Si2491   Si       0.45713    0.63884    0.70940    1.000
    N2492    N        0.35240    0.56684    0.79716    1.000
    Si2493   Si       0.33607    0.52541    0.80312    1.000
    Si2494   Si       0.32112    0.59945    0.79395    1.000
    N2495    N        0.29530    0.52296    0.78490    1.000
    Si2496   Si       0.26313    0.51823    0.81256    1.000
    Si2497   Si       0.24254    0.59002    0.80966    1.000
    N2498    N        0.28496    0.59074    0.81475    1.000
    Si2499   Si       0.42752    0.52655    0.81495    1.000
    N2500    N        0.46885    0.60762    0.78858    1.000
    N2501    N        0.41538    0.54392    0.77728    1.000
    Si2502   Si       0.39159    0.58124    0.78102    1.000
    N2503    N        0.40342    0.61915    0.76012    1.000
    N2504    N        0.34294    0.63630    0.80368    1.000
    N2505    N        0.32879    0.75062    0.80351    1.000
    N2506    N        0.26889    0.72002    0.78326    1.000
    Si2507   Si       0.31198    0.71149    0.80005    1.000
    N2508    N        0.32169    0.69205    0.76154    1.000
    Si2509   Si       0.33801    0.65197    0.76333    1.000
    Si2510   Si       0.46872    0.75949    0.79834    1.000
    Si2511   Si       0.43858    0.63737    0.77990    1.000
    N2512    N        0.43763    0.66255    0.81469    1.000
    N2513    N        0.38716    0.68805    0.77422    1.000
    N2514    N        0.44708    0.72330    0.78496    1.000
    Si2515   Si       0.41585    0.69908    0.80560    1.000
    N2516    N        0.33643    0.53026    0.84661    1.000
    N2517    N        0.34682    0.59918    0.85862    1.000
    N2518    N        0.26864    0.52221    0.85433    1.000
    Si2519   Si       0.30349    0.53795    0.87494    1.000
    Si2520   Si       0.37203    0.56866    0.83998    1.000
    N2521    N        0.45988    0.61116    0.85697    1.000
    N2522    N        0.39742    0.53037    0.84701    1.000
    N2523    N        0.46470    0.54654    0.82522    1.000
    Si2524   Si       0.48743    0.54663    0.86134    1.000
    Si2525   Si       0.37010    0.51512    0.87655    1.000
    N2526    N        0.40863    0.59019    0.82267    1.000
    Si2527   Si       0.45177    0.58725    0.82193    1.000
    N2528    N        0.32825    0.69075    0.83520    1.000
    Si2529   Si       0.34004    0.64349    0.84749    1.000
    N2530    N        0.30276    0.64240    0.87218    1.000
    Si2531   Si       0.36220    0.70245    0.85931    1.000
    N2532    N        0.26990    0.70659    0.87540    1.000
    N2533    N        0.48806    0.75765    0.83975    1.000
    N2534    N        0.39381    0.72098    0.83604    1.000
    Si2535   Si       0.46082    0.65383    0.85128    1.000
    N2536    N        0.37675    0.66107    0.86532    1.000
    N2537    N        0.29138    0.57178    0.89911    1.000
    Si2538   Si       0.25604    0.56911    0.92555    1.000
    Si2539   Si       0.31626    0.60525    0.89090    1.000
    N2540    N        0.34292    0.61177    0.92687    1.000
    N2541    N        0.31059    0.50557    0.90513    1.000
    N2542    N        0.36343    0.54993    0.90320    1.000
    Si2543   Si       0.37811    0.58791    0.91980    1.000
    N2544    N        0.41317    0.61031    0.90445    1.000
    Si2545   Si       0.45089    0.59350    0.89588    1.000
    N2546    N        0.45380    0.55007    0.88925    1.000
    N2547    N        0.48298    0.60157    0.92320    1.000
    N2548    N        0.34293    0.71582    0.89744    1.000
    Si2549   Si       0.30076    0.72951    0.89617    1.000
    N2550    N        0.26335    0.66445    0.93171    1.000
    N2551    N        0.28816    0.72812    0.93623    1.000
    Si2552   Si       0.26610    0.66492    0.88599    1.000
    Si2553   Si       0.36000    0.70211    0.93681    1.000
    Si2554   Si       0.40722    0.65276    0.89697    1.000
    N2555    N        0.44401    0.67433    0.88677    1.000
    Si2556   Si       0.46711    0.70135    0.91287    1.000
    N2557    N        0.39144    0.67321    0.93120    1.000
    N2558    N        0.45517    0.74514    0.90895    1.000
    N2559    N        0.26733    0.55771    0.96784    1.000
    N2560    N        0.35027    0.52126    0.96673    1.000
    Si2561   Si       0.25834    0.51869    0.98674    1.000
    N2562    N        0.31290    0.61323    0.99349    1.000
    Si2563   Si       0.34098    0.63314    0.96614    1.000
    Si2564   Si       0.40778    0.60074    0.98656    1.000
    N2565    N        0.39352    0.57234    0.95577    1.000
    Si2566   Si       0.48037    0.61586    0.96356    1.000
    N2567    N        0.43881    0.62727    0.97277    1.000
    N2568    N        0.42206    0.51887    0.97920    1.000
    Si2569   Si       0.39007    0.52883    0.94864    1.000
    N2570    N        0.37582    0.62881    0.99279    1.000
    N2571    N        0.32944    0.67415    0.95800    1.000
    Si2572   Si       0.29005    0.68945    0.95636    1.000
    N2573    N        0.27394    0.70226    0.99618    1.000
    Si2574   Si       0.25896    0.75802    0.94772    1.000
    Si2575   Si       0.39897    0.72805    0.99457    1.000
    N2576    N        0.43499    0.75146    0.98607    1.000
    Si2577   Si       0.42138    0.66565    0.96380    1.000
    N2578    N        0.45697    0.69038    0.95333    1.000
    N2579    N        0.37665    0.73664    0.95749    1.000
    Si2580   Si       0.48999    0.68802    0.98475    1.000
    Si2581   Si       0.34762    0.82357    0.02311    1.000
    Si2582   Si       0.28294    0.86062    0.01122    1.000
    N2583    N        0.29985    0.88042    0.05047    1.000
    N2584    N        0.24667    0.84365    0.05005    1.000
    N2585    N        0.31443    0.83283    0.99854    1.000
    N2586    N        0.37976    0.85156    0.03539    1.000
    N2587    N        0.44786    0.82045    0.01167    1.000
    Si2588   Si       0.45364    0.77687    0.01737    1.000
    Si2589   Si       0.40589    0.83653    0.00288    1.000
    Si2590   Si       0.48028    0.84841    0.99984    1.000
    N2591    N        0.37526    0.80307    0.99571    1.000
    Si2592   Si       0.24876    0.95157    0.03742    1.000
    Si2593   Si       0.31591    0.91532    0.02891    1.000
    N2594    N        0.29190    0.94973    0.04454    1.000
    N2595    N        0.35568    0.93323    0.02178    1.000
    N2596    N        0.43690    0.99923    0.01311    1.000
    N2597    N        0.48051    0.89147    0.01093    1.000
    Si2598   Si       0.43269    0.98380    0.05529    1.000
    Si2599   Si       0.46422    0.93176    0.01631    1.000
    Si2600   Si       0.31488    0.84827    0.08091    1.000
    N2601    N        0.34917    0.86660    0.09998    1.000
    N2602    N        0.27770    0.85058    0.10275    1.000
    Si2603   Si       0.32762    0.77106    0.08062    1.000
    N2604    N        0.24497    0.78766    0.09911    1.000
    N2605    N        0.32772    0.81177    0.06180    1.000
    Si2606   Si       0.25940    0.88427    0.06909    1.000
    Si2607   Si       0.24023    0.82843    0.09122    1.000
    N2608    N        0.37145    0.76688    0.09221    1.000
    N2609    N        0.41207    0.82994    0.09522    1.000
    Si2610   Si       0.38723    0.86196    0.07676    1.000
    N2611    N        0.47777    0.80296    0.10553    1.000
    N2612    N        0.46507    0.87817    0.09000    1.000
    Si2613   Si       0.45351    0.84014    0.10893    1.000
    Si2614   Si       0.45832    0.76397    0.09286    1.000
    N2615    N        0.43536    0.76753    0.05702    1.000
    Si2616   Si       0.39899    0.79315    0.11517    1.000
    N2617    N        0.32264    0.00345    0.08105    1.000
    Si2618   Si       0.30933    0.96280    0.08110    1.000
    N2619    N        0.34007    0.93218    0.08793    1.000
    Si2620   Si       0.36026    0.00640    0.06061    1.000
    N2621    N        0.24797    0.90564    0.11022    1.000
    N2622    N        0.28245    0.96384    0.11422    1.000
    N2623    N        0.45225    0.94406    0.05665    1.000
    N2624    N        0.39147    0.97451    0.05909    1.000
    Si2625   Si       0.37482    0.93370    0.06127    1.000
    N2626    N        0.40071    0.90365    0.07481    1.000
    Si2627   Si       0.44029    0.91493    0.08709    1.000
    N2628    N        0.27848    0.80977    0.16443    1.000
    Si2629   Si       0.27176    0.77758    0.13691    1.000
    Si2630   Si       0.34636    0.76736    0.14762    1.000
    N2631    N        0.31084    0.76760    0.12029    1.000
    Si2632   Si       0.27396    0.88032    0.13478    1.000
    N2633    N        0.37277    0.80298    0.14813    1.000
    N2634    N        0.39830    0.87192    0.16216    1.000
    N2635    N        0.45089    0.83383    0.15441    1.000
    Si2636   Si       0.46479    0.79213    0.14872    1.000
    N2637    N        0.43604    0.76404    0.13200    1.000
    Si2638   Si       0.28001    0.00394    0.13279    1.000
    N2639    N        0.31189    0.89411    0.14848    1.000
    Si2640   Si       0.24923    0.94473    0.13381    1.000
    N2641    N        0.25520    0.99048    0.16750    1.000
    Si2642   Si       0.34355    0.90392    0.12100    1.000
    N2643    N        0.43838    0.92807    0.12839    1.000
    Si2644   Si       0.47471    0.92105    0.15088    1.000
    Si2645   Si       0.40970    0.91702    0.16426    1.000
    N2646    N        0.37173    0.93069    0.14646    1.000
    Si2647   Si       0.30868    0.80521    0.19822    1.000
    N2648    N        0.33188    0.84114    0.18877    1.000
    N2649    N        0.33130    0.76809    0.18932    1.000
    N2650    N        0.27518    0.88045    0.21986    1.000
    Si2651   Si       0.31203    0.88218    0.19237    1.000
    Si2652   Si       0.33418    0.76195    0.23349    1.000
    N2653    N        0.24189    0.82247    0.22038    1.000
    N2654    N        0.39891    0.83417    0.21087    1.000
    N2655    N        0.46067    0.85855    0.22459    1.000
    Si2656   Si       0.43394    0.85751    0.18632    1.000
    N2657    N        0.48490    0.78269    0.18817    1.000
    Si2658   Si       0.46122    0.76512    0.22152    1.000
    Si2659   Si       0.37335    0.83727    0.17529    1.000
    N2660    N        0.32044    0.96878    0.18210    1.000
    Si2661   Si       0.35576    0.94266    0.18578    1.000
    Si2662   Si       0.27837    0.96515    0.19398    1.000
    N2663    N        0.34241    0.90740    0.21024    1.000
    Si2664   Si       0.24528    0.89864    0.19514    1.000
    N2665    N        0.26188    0.93050    0.17345    1.000
    Si2666   Si       0.47805    0.89851    0.21735    1.000
    Si2667   Si       0.48860    0.99269    0.18121    1.000
    N2668    N        0.45083    0.98735    0.20296    1.000
    N2669    N        0.37585    0.99939    0.19018    1.000
    N2670    N        0.45071    0.90142    0.18186    1.000
    N2671    N        0.39849    0.93996    0.20278    1.000
    Si2672   Si       0.40904    0.98387    0.21326    1.000
    N2673    N        0.34735    0.85342    0.25944    1.000
    Si2674   Si       0.31163    0.82736    0.27295    1.000
    N2675    N        0.27622    0.84932    0.28154    1.000
    Si2676   Si       0.25181    0.85524    0.24640    1.000
    N2677    N        0.30980    0.79808    0.24103    1.000
    N2678    N        0.41503    0.84159    0.27728    1.000
    Si2679   Si       0.45310    0.83294    0.25841    1.000
    Si2680   Si       0.41855    0.78356    0.28502    1.000
    N2681    N        0.44451    0.79292    0.24940    1.000
    Si2682   Si       0.38126    0.83067    0.24967    1.000
    N2683    N        0.48545    0.84246    0.28564    1.000
    N2684    N        0.37540    0.78579    0.24814    1.000
    Si2685   Si       0.27605    0.94405    0.27040    1.000
    Si2686   Si       0.34653    0.89708    0.25292    1.000
    N2687    N        0.31570    0.92113    0.27118    1.000
    N2688    N        0.27228    0.97224    0.23746    1.000
    N2689    N        0.35136    0.98604    0.29052    1.000
    N2690    N        0.38798    0.90480    0.26721    1.000
    N2691    N        0.45848    0.92715    0.24447    1.000
    N2692    N        0.40739    0.96994    0.25578    1.000
    Si2693   Si       0.41474    0.92755    0.24257    1.000
    Si2694   Si       0.48018    0.95962    0.26281    1.000
    N2695    N        0.46950    0.00231    0.26638    1.000
    Si2696   Si       0.39594    0.98929    0.29166    1.000
    N2697    N        0.32235    0.80667    0.31012    1.000
    Si2698   Si       0.28782    0.78650    0.32740    1.000
    Si2699   Si       0.27280    0.85625    0.32325    1.000
    Si2700   Si       0.36003    0.81633    0.33492    1.000
    N2701    N        0.26206    0.76700    0.29940    1.000
    N2702    N        0.30274    0.88017    0.34339    1.000
    N2703    N        0.26990    0.82106    0.34857    1.000
    N2704    N        0.37334    0.86003    0.33007    1.000
    N2705    N        0.45503    0.78145    0.31577    1.000
    N2706    N        0.39246    0.79337    0.31903    1.000
    Si2707   Si       0.47894    0.87483    0.31480    1.000
    Si2708   Si       0.42627    0.78653    0.34720    1.000
    Si2709   Si       0.40427    0.87891    0.30013    1.000
    Si2710   Si       0.28006    0.00846    0.31797    1.000
    N2711    N        0.28987    0.96775    0.30544    1.000
    N2712    N        0.34873    0.92693    0.33182    1.000
    Si2713   Si       0.32934    0.95159    0.30209    1.000
    N2714    N        0.44050    0.89821    0.31581    1.000
    Si2715   Si       0.44516    0.93961    0.32955    1.000
    Si2716   Si       0.37741    0.95373    0.35250    1.000
    N2717    N        0.48071    0.95936    0.30923    1.000
    Si2718   Si       0.47828    0.00620    0.30812    1.000
    N2719    N        0.40966    0.96360    0.32513    1.000
    N2720    N        0.35492    0.79865    0.37387    1.000
    N2721    N        0.33800    0.88166    0.39514    1.000
    Si2722   Si       0.32957    0.76367    0.37989    1.000
    N2723    N        0.42321    0.81297    0.38074    1.000
    Si2724   Si       0.38764    0.79634    0.40409    1.000
    Si2725   Si       0.45111    0.84403    0.38653    1.000
    N2726    N        0.43580    0.87881    0.40785    1.000
    N2727    N        0.47571    0.85510    0.35375    1.000
    N2728    N        0.28593    0.00934    0.36061    1.000
    N2729    N        0.25604    0.89090    0.39664    1.000
    N2730    N        0.35489    0.98241    0.37565    1.000
    Si2731   Si       0.34853    0.92706    0.40069    1.000
    Si2732   Si       0.29619    0.89564    0.38416    1.000
    N2733    N        0.30705    0.93634    0.39239    1.000
    Si2734   Si       0.34579    0.88728    0.34686    1.000
    N2735    N        0.45155    0.94207    0.37359    1.000
    Si2736   Si       0.48925    0.95544    0.39131    1.000
    Si2737   Si       0.42730    0.92090    0.40035    1.000
    N2738    N        0.38797    0.92592    0.38304    1.000
    Si2739   Si       0.28744    0.79183    0.43390    1.000
    Si2740   Si       0.34090    0.85114    0.42755    1.000
    N2741    N        0.30237    0.83159    0.43400    1.000
    N2742    N        0.31661    0.76188    0.42224    1.000
    N2743    N        0.24843    0.78816    0.41336    1.000
    Si2744   Si       0.40412    0.81346    0.46967    1.000
    N2745    N        0.37442    0.82245    0.43649    1.000
    N2746    N        0.44342    0.83059    0.45971    1.000
    Si2747   Si       0.43636    0.87499    0.45155    1.000
    Si2748   Si       0.48763    0.83903    0.45017    1.000
    N2749    N        0.47898    0.88066    0.46512    1.000
    N2750    N        0.48726    0.83075    0.40810    1.000
    N2751    N        0.27209    0.93260    0.45240    1.000
    N2752    N        0.35385    0.93642    0.44245    1.000
    N2753    N        0.26344    0.99144    0.42486    1.000
    Si2754   Si       0.29425    0.96006    0.42670    1.000
    N2755    N        0.32006    0.98925    0.45175    1.000
    Si2756   Si       0.39181    0.92818    0.46247    1.000
    Si2757   Si       0.45604    0.96219    0.45501    1.000
    N2758    N        0.44258    0.00044    0.43791    1.000
    N2759    N        0.42486    0.93811    0.43825    1.000
    N2760    N        0.31580    0.82862    0.51479    1.000
    N2761    N        0.25861    0.85602    0.49116    1.000
    Si2762   Si       0.29865    0.84238    0.47872    1.000
    Si2763   Si       0.30024    0.78600    0.52123    1.000
    N2764    N        0.28211    0.78926    0.47931    1.000
    N2765    N        0.33335    0.86999    0.47004    1.000
    Si2766   Si       0.36828    0.86704    0.49672    1.000
    N2767    N        0.41098    0.77105    0.47995    1.000
    N2768    N        0.38604    0.82888    0.50602    1.000
    N2769    N        0.31355    0.93887    0.50296    1.000
    N2770    N        0.27341    0.99068    0.50681    1.000
    Si2771   Si       0.34001    0.96181    0.47888    1.000
    N2772    N        0.25146    0.91789    0.52080    1.000
    Si2773   Si       0.27125    0.94781    0.49457    1.000
    N2774    N        0.38118    0.95129    0.49656    1.000
    N2775    N        0.46197    0.94347    0.49722    1.000
    N2776    N        0.39963    0.88598    0.47046    1.000
    N2777    N        0.48472    0.00405    0.51830    1.000
    Si2778   Si       0.48987    0.90959    0.49374    1.000
    N2779    N        0.28139    0.80632    0.55934    1.000
    Si2780   Si       0.31187    0.83862    0.56070    1.000
    N2781    N        0.35417    0.82277    0.57052    1.000
    N2782    N        0.29415    0.87705    0.54907    1.000
    Si2783   Si       0.25635    0.87620    0.52945    1.000
    N2784    N        0.34016    0.76828    0.52651    1.000
    Si2785   Si       0.36952    0.80101    0.53562    1.000
    Si2786   Si       0.48188    0.78597    0.55186    1.000
    N2787    N        0.47089    0.82681    0.54968    1.000
    N2788    N        0.41037    0.78289    0.55027    1.000
    Si2789   Si       0.43990    0.84750    0.57345    1.000
    N2790    N        0.42269    0.88171    0.54968    1.000
    N2791    N        0.35023    0.99223    0.53911    1.000
    N2792    N        0.32181    0.92960    0.57251    1.000
    N2793    N        0.28890    0.99273    0.57613    1.000
    Si2794   Si       0.32720    0.97216    0.57190    1.000
    Si2795   Si       0.32019    0.91072    0.53508    1.000
    N2796    N        0.35909    0.89100    0.53297    1.000
    Si2797   Si       0.38844    0.97022    0.53352    1.000
    N2798    N        0.48997    0.89228    0.53384    1.000
    N2799    N        0.39135    0.94463    0.56748    1.000
    N2800    N        0.46323    0.94667    0.56903    1.000
    Si2801   Si       0.45841    0.90418    0.56002    1.000
    Si2802   Si       0.38736    0.90129    0.56610    1.000
    N2803    N        0.42435    0.99277    0.52889    1.000
    Si2804   Si       0.46171    0.97016    0.53177    1.000
    N2805    N        0.30045    0.78744    0.62088    1.000
    N2806    N        0.31075    0.85347    0.60371    1.000
    Si2807   Si       0.31666    0.82395    0.63543    1.000
    N2808    N        0.36164    0.81824    0.64065    1.000
    Si2809   Si       0.27295    0.77651    0.58905    1.000
    Si2810   Si       0.37492    0.83861    0.60465    1.000
    N2811    N        0.41661    0.82289    0.60048    1.000
    N2812    N        0.46276    0.87851    0.59483    1.000
    Si2813   Si       0.37603    0.77526    0.64498    1.000
    N2814    N        0.37978    0.88136    0.60421    1.000
    Si2815   Si       0.42294    0.78103    0.59166    1.000
    N2816    N        0.46588    0.77254    0.59151    1.000
    N2817    N        0.25565    0.90347    0.59708    1.000
    Si2818   Si       0.27138    0.99534    0.61504    1.000
    N2819    N        0.35038    0.98509    0.60595    1.000
    N2820    N        0.32052    0.91192    0.63616    1.000
    Si2821   Si       0.30045    0.89656    0.59566    1.000
    N2822    N        0.26976    0.95964    0.63919    1.000
    Si2823   Si       0.24023    0.92803    0.62942    1.000
    Si2824   Si       0.36429    0.90297    0.63952    1.000
    Si2825   Si       0.33888    0.00994    0.64085    1.000
    N2826    N        0.44997    0.96743    0.63520    1.000
    Si2827   Si       0.38970    0.96821    0.60474    1.000
    Si2828   Si       0.47525    0.88823    0.63649    1.000
    N2829    N        0.38913    0.93869    0.63816    1.000
    Si2830   Si       0.47988    0.95435    0.60801    1.000
    N2831    N        0.29353    0.84767    0.66610    1.000
    Si2832   Si       0.25101    0.85486    0.65944    1.000
    Si2833   Si       0.31570    0.88245    0.68515    1.000
    N2834    N        0.35899    0.87907    0.67518    1.000
    N2835    N        0.24130    0.83338    0.69686    1.000
    N2836    N        0.47269    0.79666    0.68756    1.000
    Si2837   Si       0.37422    0.83900    0.67740    1.000
    N2838    N        0.41678    0.84245    0.68401    1.000
    N2839    N        0.41075    0.76989    0.67320    1.000
    Si2840   Si       0.42943    0.80223    0.69403    1.000
    Si2841   Si       0.43702    0.87827    0.69622    1.000
    Si2842   Si       0.30540    0.94661    0.66033    1.000
    N2843    N        0.33760    0.97531    0.67041    1.000
    N2844    N        0.29431    0.92392    0.69743    1.000
    N2845    N        0.24106    0.89864    0.66192    1.000
    Si2846   Si       0.42475    0.94300    0.66131    1.000
    N2847    N        0.44437    0.90389    0.66261    1.000
    N2848    N        0.41040    0.96599    0.69851    1.000
    Si2849   Si       0.36604    0.97659    0.70253    1.000
    N2850    N        0.30558    0.86206    0.72631    1.000
    Si2851   Si       0.35155    0.84385    0.74465    1.000
    Si2852   Si       0.28063    0.82485    0.71737    1.000
    N2853    N        0.35696    0.81779    0.71100    1.000
    N2854    N        0.26357    0.81027    0.75832    1.000
    N2855    N        0.35806    0.88496    0.76123    1.000
    N2856    N        0.29646    0.78513    0.70585    1.000
    N2857    N        0.24520    0.88613    0.73557    1.000
    Si2858   Si       0.33942    0.77777    0.70435    1.000
    N2859    N        0.47402    0.86336    0.71507    1.000
    N2860    N        0.42018    0.78193    0.73128    1.000
    Si2861   Si       0.48367    0.87639    0.75483    1.000
    Si2862   Si       0.28410    0.88709    0.75627    1.000
    Si2863   Si       0.29780    0.95448    0.72948    1.000
    N2864    N        0.33928    0.96891    0.73512    1.000
    N2865    N        0.27199    0.98776    0.72387    1.000
    N2866    N        0.28959    0.92970    0.76407    1.000
    Si2867   Si       0.25047    0.91363    0.70121    1.000
    Si2868   Si       0.42468    0.94617    0.73583    1.000
    N2869    N        0.42481    0.90114    0.73217    1.000
    N2870    N        0.46081    0.96845    0.74694    1.000
    Si2871   Si       0.29256    0.82341    0.78768    1.000
    N2872    N        0.28656    0.86710    0.79401    1.000
    Si2873   Si       0.35105    0.77454    0.77564    1.000
    N2874    N        0.33196    0.81302    0.77135    1.000
    Si2875   Si       0.47652    0.83339    0.79921    1.000
    N2876    N        0.38991    0.77848    0.79597    1.000
    N2877    N        0.45514    0.79815    0.78694    1.000
    N2878    N        0.45391    0.87046    0.78728    1.000
    Si2879   Si       0.41498    0.80112    0.76844    1.000
    Si2880   Si       0.40320    0.88289    0.76498    1.000
    N2881    N        0.39629    0.83952    0.76103    1.000
    N2882    N        0.33994    0.94776    0.80360    1.000
    N2883    N        0.28496    0.99407    0.79471    1.000
    Si2884   Si       0.29575    0.95187    0.80125    1.000
    Si2885   Si       0.35528    0.90704    0.79831    1.000
    Si2886   Si       0.35878    0.97573    0.77231    1.000
    N2887    N        0.39876    0.90397    0.80381    1.000
    Si2888   Si       0.45658    0.00592    0.76953    1.000
    N2889    N        0.39796    0.95887    0.76761    1.000
    N2890    N        0.45733    0.94017    0.80662    1.000
    Si2891   Si       0.41384    0.94542    0.80514    1.000
    Si2892   Si       0.48628    0.94604    0.77460    1.000
    N2893    N        0.44959    0.00787    0.81415    1.000
    Si2894   Si       0.32240    0.77833    0.83766    1.000
    Si2895   Si       0.26528    0.79270    0.86004    1.000
    N2896    N        0.28181    0.87031    0.86821    1.000
    N2897    N        0.36024    0.77838    0.85973    1.000
    N2898    N        0.29075    0.80707    0.82735    1.000
    N2899    N        0.33841    0.88725    0.83479    1.000
    Si2900   Si       0.36324    0.86495    0.86356    1.000
    N2901    N        0.30226    0.77205    0.87931    1.000
    Si2902   Si       0.39527    0.76542    0.83673    1.000
    N2903    N        0.42907    0.78289    0.85730    1.000
    N2904    N        0.40044    0.84903    0.84248    1.000
    N2905    N        0.46938    0.83675    0.84267    1.000
    Si2906   Si       0.43188    0.82622    0.86145    1.000
    Si2907   Si       0.42869    0.87878    0.82378    1.000
    Si2908   Si       0.46635    0.77046    0.87545    1.000
    Si2909   Si       0.29520    0.88797    0.83122    1.000
    Si2910   Si       0.35412    0.96013    0.84382    1.000
    N2911    N        0.33430    0.00013    0.84847    1.000
    N2912    N        0.28148    0.92788    0.83549    1.000
    N2913    N        0.44146    0.90008    0.85914    1.000
    N2914    N        0.39686    0.96728    0.83724    1.000
    N2915    N        0.44968    0.96484    0.87375    1.000
    Si2916   Si       0.42525    0.00041    0.85212    1.000
    Si2917   Si       0.46662    0.93359    0.84842    1.000
    Si2918   Si       0.30523    0.85913    0.90279    1.000
    Si2919   Si       0.33811    0.79556    0.89534    1.000
    N2920    N        0.33819    0.83640    0.88503    1.000
    N2921    N        0.28640    0.83410    0.93625    1.000
    N2922    N        0.43318    0.84382    0.90105    1.000
    N2923    N        0.32031    0.89674    0.92175    1.000
    N2924    N        0.29915    0.99769    0.90904    1.000
    Si2925   Si       0.35744    0.91926    0.91468    1.000
    Si2926   Si       0.33725    0.99678    0.89141    1.000
    N2927    N        0.35005    0.95248    0.88809    1.000
    N2928    N        0.26752    0.94107    0.93777    1.000
    N2929    N        0.38228    0.89086    0.89177    1.000
    Si2930   Si       0.45622    0.95075    0.91402    1.000
    N2931    N        0.43997    0.91129    0.92538    1.000
    Si2932   Si       0.42439    0.88595    0.89456    1.000
    Si2933   Si       0.30589    0.80652    0.96315    1.000
    N2934    N        0.28329    0.77377    0.98320    1.000
    N2935    N        0.24637    0.85818    0.98724    1.000
    Si2936   Si       0.24608    0.84721    0.94534    1.000
    N2937    N        0.34086    0.79397    0.93815    1.000
    Si2938   Si       0.45123    0.76505    0.94712    1.000
    Si2939   Si       0.38018    0.78090    0.95764    1.000
    N2940    N        0.47711    0.84882    0.95708    1.000
    N2941    N        0.41066    0.86245    0.96800    1.000
    Si2942   Si       0.43822    0.83686    0.94390    1.000
    N2943    N        0.42104    0.79682    0.94391    1.000
    N2944    N        0.49267    0.77713    0.95649    1.000
    Si2945   Si       0.30037    0.91759    0.95458    1.000
    N2946    N        0.32320    0.95496    0.96097    1.000
    N2947    N        0.30169    0.89828    0.99128    1.000
    Si2948   Si       0.35979    0.95021    0.98265    1.000
    Si2949   Si       0.28953    0.97686    0.94545    1.000
    Si2950   Si       0.41605    0.90575    0.96154    1.000
    N2951    N        0.42991    0.93382    0.99031    1.000
    N2952    N        0.38323    0.98587    0.97758    1.000
    N2953    N        0.44465    0.97990    0.94228    1.000
    N2954    N        0.37757    0.92249    0.95288    1.000
    Si2955   Si       0.42314    0.97526    0.98016    1.000
    N2956    N        0.58347    0.04145    0.01826    1.000
    N2957    N        0.52588    0.08623    0.04414    1.000
    Si2958   Si       0.50433    0.06160    0.01667    1.000
    N2959    N        0.51422    0.02100    0.03009    1.000
    Si2960   Si       0.54934    0.12135    0.03612    1.000
    N2961    N        0.58908    0.10711    0.04302    1.000
    Si2962   Si       0.58730    0.06531    0.05390    1.000
    Si2963   Si       0.65073    0.04531    0.03301    1.000
    Si2964   Si       0.71128    0.08931    0.03890    1.000
    N2965    N        0.69325    0.05114    0.03567    1.000
    N2966    N        0.64721    0.11979    0.01273    1.000
    N2967    N        0.71315    0.11070    0.00110    1.000
    Si2968   Si       0.71798    0.01740    0.04324    1.000
    Si2969   Si       0.63311    0.11372    0.05446    1.000
    Si2970   Si       0.55399    0.19294    0.04367    1.000
    N2971    N        0.59219    0.18661    0.02183    1.000
    N2972    N        0.51971    0.20572    0.01864    1.000
    Si2973   Si       0.50446    0.24282    0.00107    1.000
    N2974    N        0.53349    0.13870    0.99969    1.000
    Si2975   Si       0.50074    0.16950    0.00151    1.000
    Si2976   Si       0.66609    0.26006    0.03937    1.000
    Si2977   Si       0.63493    0.18613    0.03590    1.000
    N2978    N        0.69640    0.16851    0.03373    1.000
    Si2979   Si       0.68150    0.14225    0.00115    1.000
    Si2980   Si       0.71645    0.20634    0.03924    1.000
    N2981    N        0.63518    0.23039    0.04790    1.000
    N2982    N        0.70071    0.24072    0.01919    1.000
    N2983    N        0.56697    0.04360    0.08499    1.000
    Si2984   Si       0.50138    0.09445    0.07923    1.000
    Si2985   Si       0.52949    0.02632    0.07108    1.000
    N2986    N        0.49703    0.05220    0.08981    1.000
    N2987    N        0.52174    0.11135    0.11361    1.000
    N2988    N        0.69173    0.11119    0.07149    1.000
    Si2989   Si       0.63863    0.06100    0.11089    1.000
    N2990    N        0.63063    0.06991    0.06452    1.000
    N2991    N        0.62483    0.01719    0.10801    1.000
    Si2992   Si       0.69051    0.10217    0.11651    1.000
    N2993    N        0.64319    0.11027    0.11885    1.000
    Si2994   Si       0.59784    0.24638    0.06400    1.000
    N2995    N        0.54377    0.15511    0.06380    1.000
    N2996    N        0.51759    0.24178    0.09046    1.000
    Si2997   Si       0.54528    0.14520    0.10575    1.000
    N2998    N        0.57375    0.21364    0.07732    1.000
    Si2999   Si       0.54530    0.21724    0.11159    1.000
    N3000    N        0.71265    0.21022    0.08333    1.000
    N3001    N        0.63970    0.15704    0.06927    1.000
    Si3002   Si       0.64438    0.15419    0.11273    1.000
    Si3003   Si       0.70395    0.15484    0.07457    1.000
    Si3004   Si       0.71842    0.25276    0.09033    1.000
    Si3005   Si       0.50151    0.10778    0.15310    1.000
    N3006    N        0.60728    0.06137    0.14630    1.000
    Si3007   Si       0.58444    0.02987    0.12226    1.000
    Si3008   Si       0.60839    0.10566    0.14456    1.000
    N3009    N        0.52604    0.08227    0.17536    1.000
    Si3010   Si       0.70286    0.02290    0.12497    1.000
    N3011    N        0.73525    0.10000    0.12465    1.000
    N3012    N        0.68011    0.05896    0.12039    1.000
    N3013    N        0.58097    0.13622    0.12762    1.000
    N3014    N        0.52747    0.18040    0.12402    1.000
    Si3015   Si       0.59424    0.16494    0.16122    1.000
    N3016    N        0.56430    0.24242    0.13928    1.000
    N3017    N        0.49752    0.14371    0.17720    1.000
    Si3018   Si       0.70507    0.17258    0.15564    1.000
    Si3019   Si       0.71714    0.24818    0.16795    1.000
    N3020    N        0.69042    0.21334    0.16248    1.000
    N3021    N        0.63160    0.25071    0.16074    1.000
    Si3022   Si       0.64811    0.21211    0.16921    1.000
    N3023    N        0.68953    0.15267    0.11850    1.000
    N3024    N        0.62968    0.18272    0.14287    1.000
    N3025    N        0.57261    0.04528    0.21279    1.000
    Si3026   Si       0.52718    0.05413    0.20752    1.000
    Si3027   Si       0.60871    0.04460    0.18756    1.000
    N3028    N        0.51654    0.01296    0.20805    1.000
    N3029    N        0.61772    0.13195    0.18070    1.000
    Si3030   Si       0.68132    0.04902    0.20941    1.000
    N3031    N        0.71250    0.07472    0.18702    1.000
    N3032    N        0.64004    0.06349    0.21232    1.000
    Si3033   Si       0.71851    0.11518    0.20700    1.000
    N3034    N        0.54394    0.24780    0.21122    1.000
    N3035    N        0.57271    0.18733    0.18891    1.000
    Si3036   Si       0.54847    0.20503    0.22209    1.000
    N3037    N        0.51415    0.17920    0.23337    1.000
    Si3038   Si       0.65030    0.15042    0.20334    1.000
    N3039    N        0.69126    0.14443    0.18841    1.000
    N3040    N        0.64452    0.19662    0.20947    1.000
    N3041    N        0.59164    0.09552    0.25608    1.000
    Si3042   Si       0.56669    0.05854    0.25624    1.000
    Si3043   Si       0.50698    0.11014    0.26021    1.000
    N3044    N        0.56498    0.01617    0.26739    1.000
    N3045    N        0.52647    0.07443    0.24495    1.000
    Si3046   Si       0.57422    0.11248    0.29245    1.000
    Si3047   Si       0.67847    0.04362    0.28487    1.000
    N3048    N        0.71700    0.11949    0.25060    1.000
    N3049    N        0.70175    0.04412    0.24748    1.000
    Si3050   Si       0.63207    0.09056    0.24602    1.000
    N3051    N        0.64748    0.07471    0.28362    1.000
    N3052    N        0.64917    0.13035    0.24218    1.000
    N3053    N        0.53904    0.13480    0.27737    1.000
    Si3054   Si       0.53054    0.17664    0.27527    1.000
    N3055    N        0.56314    0.20248    0.26417    1.000
    Si3056   Si       0.58995    0.21980    0.29219    1.000
    N3057    N        0.63241    0.22360    0.28268    1.000
    Si3058   Si       0.66080    0.21320    0.24875    1.000
    N3059    N        0.73981    0.22770    0.27611    1.000
    N3060    N        0.68832    0.18375    0.26460    1.000
    Si3061   Si       0.72501    0.25179    0.24279    1.000
    N3062    N        0.68120    0.25206    0.23912    1.000
    Si3063   Si       0.68388    0.14075    0.26668    1.000
    Si3064   Si       0.72382    0.19123    0.29091    1.000
    Si3065   Si       0.51614    0.06672    0.31670    1.000
    N3066    N        0.51718    0.02418    0.31391    1.000
    N3067    N        0.59572    0.01604    0.33045    1.000
    N3068    N        0.60748    0.12729    0.31710    1.000
    N3069    N        0.55746    0.07316    0.30256    1.000
    N3070    N        0.70385    0.05010    0.31860    1.000
    Si3071   Si       0.64574    0.10330    0.31686    1.000
    N3072    N        0.67977    0.12911    0.30869    1.000
    N3073    N        0.50410    0.18699    0.30951    1.000
    N3074    N        0.58666    0.19652    0.32887    1.000
    Si3075   Si       0.51581    0.18312    0.35041    1.000
    Si3076   Si       0.61396    0.16368    0.34131    1.000
    Si3077   Si       0.69270    0.15555    0.34013    1.000
    N3078    N        0.66308    0.25260    0.33523    1.000
    N3079    N        0.71070    0.19612    0.33275    1.000
    N3080    N        0.65410    0.17786    0.34853    1.000
    Si3081   Si       0.51480    0.10936    0.37930    1.000
    N3082    N        0.50780    0.07230    0.35799    1.000
    N3083    N        0.59696    0.10142    0.40375    1.000
    Si3084   Si       0.72589    0.11263    0.39543    1.000
    N3085    N        0.70747    0.07009    0.38777    1.000
    Si3086   Si       0.63904    0.09277    0.39935    1.000
    N3087    N        0.66200    0.01940    0.36354    1.000
    N3088    N        0.64942    0.08636    0.35629    1.000
    Si3089   Si       0.68158    0.05697    0.35699    1.000
    N3090    N        0.59722    0.16711    0.38228    1.000
    Si3091   Si       0.57674    0.20525    0.37251    1.000
    N3092    N        0.59945    0.23780    0.38963    1.000
    N3093    N        0.53469    0.21345    0.37326    1.000
    Si3094   Si       0.51972    0.25410    0.37544    1.000
    N3095    N        0.52705    0.14190    0.35720    1.000
    N3096    N        0.71804    0.15156    0.37547    1.000
    Si3097   Si       0.73559    0.19389    0.37353    1.000
    Si3098   Si       0.67731    0.21657    0.35339    1.000
    N3099    N        0.70364    0.22527    0.38777    1.000
    Si3100   Si       0.56713    0.08089    0.42807    1.000
    N3101    N        0.57676    0.03932    0.43088    1.000
    Si3102   Si       0.50594    0.12267    0.44811    1.000
    N3103    N        0.52976    0.10081    0.41908    1.000
    N3104    N        0.51047    0.02313    0.45520    1.000
    Si3105   Si       0.55189    0.01223    0.45231    1.000
    Si3106   Si       0.61960    0.03181    0.43948    1.000
    N3107    N        0.71924    0.11769    0.43785    1.000
    N3108    N        0.65251    0.05726    0.42489    1.000
    Si3109   Si       0.69703    0.04768    0.42694    1.000
    N3110    N        0.64878    0.12747    0.42400    1.000
    Si3111   Si       0.68171    0.13392    0.45245    1.000
    N3112    N        0.50288    0.16166    0.42711    1.000
    N3113    N        0.57676    0.15878    0.44597    1.000
    Si3114   Si       0.53662    0.17827    0.44909    1.000
    Si3115   Si       0.60616    0.14311    0.41666    1.000
    Si3116   Si       0.49451    0.24181    0.44578    1.000
    N3117    N        0.51920    0.21354    0.46844    1.000
    N3118    N        0.63939    0.22447    0.46161    1.000
    Si3119   Si       0.72950    0.19741    0.45030    1.000
    Si3120   Si       0.62153    0.24572    0.42646    1.000
    Si3121   Si       0.69862    0.25715    0.41918    1.000
    N3122    N        0.71342    0.23963    0.45834    1.000
    N3123    N        0.69129    0.17703    0.45698    1.000
    Si3124   Si       0.51320    0.02695    0.49735    1.000
    Si3125   Si       0.57900    0.05803    0.49708    1.000
    N3126    N        0.50278    0.06890    0.51094    1.000
    N3127    N        0.55881    0.01829    0.49478    1.000
    Si3128   Si       0.57258    0.13335    0.48230    1.000
    N3129    N        0.57212    0.09205    0.47117    1.000
    N3130    N        0.61846    0.03812    0.48333    1.000
    N3131    N        0.72983    0.07139    0.49846    1.000
    N3132    N        0.67663    0.11623    0.49265    1.000
    Si3133   Si       0.72220    0.02999    0.50858    1.000
    Si3134   Si       0.70867    0.10432    0.51916    1.000
    N3135    N        0.68009    0.02158    0.51750    1.000
    Si3136   Si       0.64043    0.03882    0.51947    1.000
    Si3137   Si       0.64184    0.11853    0.52164    1.000
    N3138    N        0.60527    0.14081    0.51109    1.000
    Si3139   Si       0.53227    0.21519    0.50995    1.000
    Si3140   Si       0.60299    0.23332    0.48775    1.000
    N3141    N        0.52851    0.14431    0.48265    1.000
    N3142    N        0.57494    0.20465    0.50494    1.000
    Si3143   Si       0.50600    0.14834    0.52113    1.000
    N3144    N        0.69289    0.21209    0.51923    1.000
    Si3145   Si       0.67777    0.21530    0.47822    1.000
    Si3146   Si       0.52872    0.07987    0.54583    1.000
    Si3147   Si       0.60354    0.07119    0.56671    1.000
    N3148    N        0.52922    0.12349    0.54847    1.000
    N3149    N        0.56928    0.06798    0.53899    1.000
    N3150    N        0.51371    0.05662    0.57838    1.000
    N3151    N        0.61351    0.02110    0.54852    1.000
    Si3152   Si       0.55911    0.13333    0.58040    1.000
    N3153    N        0.69983    0.08451    0.55912    1.000
    N3154    N        0.72942    0.01903    0.55351    1.000
    Si3155   Si       0.72636    0.05867    0.58023    1.000
    N3156    N        0.63578    0.07920    0.53769    1.000
    Si3157   Si       0.68094    0.11719    0.58309    1.000
    N3158    N        0.66882    0.02496    0.58835    1.000
    N3159    N        0.58069    0.23645    0.57256    1.000
    N3160    N        0.57264    0.16985    0.56530    1.000
    Si3161   Si       0.59580    0.17775    0.53022    1.000
    N3162    N        0.50179    0.19092    0.53070    1.000
    Si3163   Si       0.67014    0.18621    0.54698    1.000
    N3164    N        0.62940    0.20053    0.54477    1.000
    Si3165   Si       0.71521    0.22905    0.55461    1.000
    N3166    N        0.66478    0.14346    0.55269    1.000
    N3167    N        0.69328    0.20167    0.58056    1.000
    Si3168   Si       0.62149    0.24078    0.55963    1.000
    Si3169   Si       0.51762    0.02849    0.61359    1.000
    N3170    N        0.56188    0.01743    0.60876    1.000
    Si3171   Si       0.58157    0.04385    0.63704    1.000
    N3172    N        0.53496    0.13085    0.61731    1.000
    N3173    N        0.61264    0.05435    0.60749    1.000
    N3174    N        0.59633    0.11053    0.58710    1.000
    Si3175   Si       0.49224    0.12059    0.62455    1.000
    Si3176   Si       0.61436    0.10280    0.62504    1.000
    Si3177   Si       0.67212    0.05411    0.62327    1.000
    N3178    N        0.65974    0.09763    0.61512    1.000
    N3179    N        0.71631    0.04966    0.62159    1.000
    Si3180   Si       0.62513    0.01551    0.59183    1.000
    Si3181   Si       0.50789    0.23545    0.61205    1.000
    Si3182   Si       0.57691    0.20063    0.59685    1.000
    N3183    N        0.53885    0.20530    0.61793    1.000
    N3184    N        0.61207    0.19934    0.62215    1.000
    Si3185   Si       0.52634    0.17018    0.63870    1.000
    N3186    N        0.71866    0.13950    0.59621    1.000
    Si3187   Si       0.62179    0.24317    0.63327    1.000
    N3188    N        0.64115    0.25476    0.59534    1.000
    Si3189   Si       0.70426    0.17670    0.61543    1.000
    N3190    N        0.70975    0.25411    0.62281    1.000
    Si3191   Si       0.59348    0.11208    0.68490    1.000
    N3192    N        0.52340    0.03296    0.65723    1.000
    N3193    N        0.58526    0.08365    0.65414    1.000
    N3194    N        0.58763    0.01730    0.67271    1.000
    N3195    N        0.65544    0.03923    0.66190    1.000
    N3196    N        0.71854    0.02942    0.69233    1.000
    Si3197   Si       0.73000    0.10596    0.69280    1.000
    Si3198   Si       0.67824    0.04809    0.69779    1.000
    N3199    N        0.68870    0.09002    0.69394    1.000
    Si3200   Si       0.73960    0.04221    0.65760    1.000
    N3201    N        0.58291    0.24968    0.65114    1.000
    N3202    N        0.54956    0.17583    0.67559    1.000
    Si3203   Si       0.57047    0.21267    0.67285    1.000
    N3204    N        0.50222    0.24630    0.65477    1.000
    N3205    N        0.61161    0.20211    0.69061    1.000
    N3206    N        0.61657    0.13558    0.65600    1.000
    Si3207   Si       0.69280    0.17466    0.68545    1.000
    N3208    N        0.72733    0.14822    0.68686    1.000
    Si3209   Si       0.62889    0.17647    0.65537    1.000
    N3210    N        0.70040    0.21751    0.68903    1.000
    Si3211   Si       0.69642    0.25160    0.66440    1.000
    N3212    N        0.67171    0.17414    0.64689    1.000
    Si3213   Si       0.51574    0.04621    0.74205    1.000
    Si3214   Si       0.58738    0.09685    0.74915    1.000
    N3215    N        0.56409    0.12198    0.71614    1.000
    N3216    N        0.55090    0.06776    0.75870    1.000
    N3217    N        0.53540    0.01168    0.72613    1.000
    Si3218   Si       0.72970    0.00990    0.73123    1.000
    N3219    N        0.62099    0.09878    0.71751    1.000
    Si3220   Si       0.66260    0.11149    0.72228    1.000
    N3221    N        0.65681    0.02712    0.72959    1.000
    N3222    N        0.67788    0.08699    0.75710    1.000
    Si3223   Si       0.61376    0.22722    0.72577    1.000
    N3224    N        0.49583    0.14203    0.71128    1.000
    N3225    N        0.54696    0.23458    0.70763    1.000
    N3226    N        0.53006    0.17720    0.75265    1.000
    Si3227   Si       0.54423    0.21998    0.75027    1.000
    Si3228   Si       0.53760    0.15590    0.71244    1.000
    N3229    N        0.58497    0.22044    0.76085    1.000
    N3230    N        0.65189    0.21768    0.74373    1.000
    Si3231   Si       0.66463    0.17823    0.74948    1.000
    N3232    N        0.66484    0.15451    0.71279    1.000
    Si3233   Si       0.57406    0.05197    0.79260    1.000
    N3234    N        0.50283    0.12909    0.78594    1.000
    N3235    N        0.58087    0.12822    0.78064    1.000
    N3236    N        0.61204    0.06609    0.77741    1.000
    N3237    N        0.48982    0.03300    0.77271    1.000
    N3238    N        0.56703    0.01063    0.78729    1.000
    N3239    N        0.72622    0.11394    0.79684    1.000
    N3240    N        0.67008    0.02883    0.80254    1.000
    Si3241   Si       0.71551    0.02660    0.80407    1.000
    Si3242   Si       0.65307    0.05186    0.76687    1.000
    N3243    N        0.72494    0.03918    0.76470    1.000
    Si3244   Si       0.72184    0.08411    0.76414    1.000
    Si3245   Si       0.60114    0.21996    0.80123    1.000
    Si3246   Si       0.54277    0.14638    0.78981    1.000
    N3247    N        0.51720    0.23961    0.77771    1.000
    N3248    N        0.60552    0.17905    0.81750    1.000
    Si3249   Si       0.52684    0.24037    0.82225    1.000
    N3250    N        0.65222    0.14841    0.77867    1.000
    Si3251   Si       0.61668    0.13979    0.80151    1.000
    Si3252   Si       0.69381    0.14527    0.79485    1.000
    N3253    N        0.64192    0.23393    0.80657    1.000
    Si3254   Si       0.66606    0.24947    0.77214    1.000
    N3255    N        0.70635    0.17737    0.76579    1.000
    N3256    N        0.70771    0.24952    0.78125    1.000
    Si3257   Si       0.73301    0.20959    0.77891    1.000
    Si3258   Si       0.53435    0.06519    0.85686    1.000
    N3259    N        0.51547    0.03181    0.83754    1.000
    N3260    N        0.57177    0.06683    0.83324    1.000
    N3261    N        0.51296    0.10317    0.85321    1.000
    Si3262   Si       0.60990    0.08088    0.85176    1.000
    N3263    N        0.62759    0.11569    0.83610    1.000
    N3264    N        0.63813    0.04802    0.85972    1.000
    N3265    N        0.71701    0.04207    0.84657    1.000
    Si3266   Si       0.67509    0.02917    0.84895    1.000
    Si3267   Si       0.65843    0.13420    0.86074    1.000
    Si3268   Si       0.57313    0.18283    0.84478    1.000
    N3269    N        0.56979    0.22793    0.83348    1.000
    Si3270   Si       0.50275    0.17079    0.85164    1.000
    Si3271   Si       0.58899    0.24582    0.86883    1.000
    N3272    N        0.50077    0.21543    0.84744    1.000
    N3273    N        0.53862    0.16445    0.82724    1.000
    Si3274   Si       0.71169    0.18943    0.85366    1.000
    Si3275   Si       0.65657    0.24224    0.84633    1.000
    N3276    N        0.62768    0.22518    0.87166    1.000
    N3277    N        0.69662    0.23040    0.85941    1.000
    N3278    N        0.68556    0.15904    0.83768    1.000
    Si3279   Si       0.57466    0.08170    0.92403    1.000
    Si3280   Si       0.51558    0.11462    0.89875    1.000
    N3281    N        0.53933    0.06881    0.90039    1.000
    N3282    N        0.55093    0.12442    0.92642    1.000
    N3283    N        0.60651    0.08719    0.89607    1.000
    N3284    N        0.49848    0.01731    0.92020    1.000
    N3285    N        0.66630    0.03384    0.92048    1.000
    Si3286   Si       0.64732    0.06918    0.90164    1.000
    N3287    N        0.72351    0.11600    0.92375    1.000
    Si3288   Si       0.67764    0.12413    0.92169    1.000
    N3289    N        0.67484    0.09966    0.88332    1.000
    Si3290   Si       0.74248    0.03034    0.93384    1.000
    Si3291   Si       0.53777    0.24637    0.93096    1.000
    N3292    N        0.51168    0.15805    0.89311    1.000
    Si3293   Si       0.55469    0.16972    0.91907    1.000
    N3294    N        0.57689    0.24574    0.91093    1.000
    N3295    N        0.58183    0.17676    0.88566    1.000
    N3296    N        0.52803    0.20298    0.93319    1.000
    Si3297   Si       0.49138    0.18485    0.92305    1.000
    Si3298   Si       0.61164    0.24705    0.93653    1.000
    N3299    N        0.73851    0.25887    0.90453    1.000
    N3300    N        0.63459    0.21144    0.93415    1.000
    Si3301   Si       0.62124    0.19017    0.89695    1.000
    N3302    N        0.72745    0.18157    0.89354    1.000
    Si3303   Si       0.73554    0.21603    0.91765    1.000
    N3304    N        0.65048    0.15627    0.89782    1.000
    N3305    N        0.52331    0.06453    0.97502    1.000
    Si3306   Si       0.56628    0.06015    0.98359    1.000
    N3307    N        0.58906    0.09690    0.97268    1.000
    N3308    N        0.58026    0.04293    0.94560    1.000
    Si3309   Si       0.56365    0.13205    0.96831    1.000
    Si3310   Si       0.50931    0.05690    0.93276    1.000
    Si3311   Si       0.73354    0.09797    0.96426    1.000
    Si3312   Si       0.67468    0.05324    0.95852    1.000
    N3313    N        0.71731    0.05640    0.95779    1.000
    Si3314   Si       0.63174    0.09463    0.97977    1.000
    N3315    N        0.64617    0.05562    0.99065    1.000
    N3316    N        0.65532    0.09189    0.94319    1.000
    N3317    N        0.59552    0.24002    0.97383    1.000
    Si3318   Si       0.60485    0.19717    0.98073    1.000
    N3319    N        0.58064    0.16979    0.95573    1.000
    N3320    N        0.53281    0.26122    0.97192    1.000
    N3321    N        0.64626    0.19118    0.99371    1.000
    N3322    N        0.70851    0.21438    0.95242    1.000
    Si3323   Si       0.71866    0.24722    0.98020    1.000
    Si3324   Si       0.66898    0.19627    0.95706    1.000
    N3325    N        0.68118    0.15398    0.95865    1.000
    N3326    N        0.59738    0.32839    0.03896    1.000
    N3327    N        0.53132    0.33357    0.01133    1.000
    N3328    N        0.49773    0.27069    0.03475    1.000
    Si3329   Si       0.57388    0.34132    0.00467    1.000
    N3330    N        0.58298    0.38213    0.00287    1.000
    N3331    N        0.56937    0.26417    0.03537    1.000
    Si3332   Si       0.52261    0.34325    0.05335    1.000
    N3333    N        0.72660    0.32640    0.00805    1.000
    Si3334   Si       0.63832    0.33158    0.03242    1.000
    N3335    N        0.65960    0.29725    0.01756    1.000
    N3336    N        0.65975    0.36344    0.01031    1.000
    N3337    N        0.50310    0.48037    0.04658    1.000
    Si3338   Si       0.58055    0.47721    0.03819    1.000
    Si3339   Si       0.58026    0.39870    0.04286    1.000
    N3340    N        0.56222    0.43754    0.04554    1.000
    Si3341   Si       0.50571    0.47185    0.00410    1.000
    N3342    N        0.56682    0.48874    0.99856    1.000
    N3343    N        0.62314    0.47218    0.03929    1.000
    N3344    N        0.67530    0.43073    0.01828    1.000
    Si3345   Si       0.65010    0.50774    0.03650    1.000
    Si3346   Si       0.69125    0.39195    0.02359    1.000
    Si3347   Si       0.64448    0.43850    0.05010    1.000
    Si3348   Si       0.72247    0.49376    0.99644    1.000
    N3349    N        0.54050    0.30936    0.07767    1.000
    Si3350   Si       0.58393    0.31681    0.07941    1.000
    N3351    N        0.55081    0.37462    0.06592    1.000
    N3352    N        0.60494    0.27990    0.09213    1.000
    N3353    N        0.58867    0.34827    0.11213    1.000
    Si3354   Si       0.55353    0.37329    0.11112    1.000
    Si3355   Si       0.50696    0.30864    0.11330    1.000
    Si3356   Si       0.53312    0.26878    0.05978    1.000
    N3357    N        0.65068    0.33385    0.07438    1.000
    Si3358   Si       0.64708    0.29630    0.09592    1.000
    N3359    N        0.67751    0.26744    0.08132    1.000
    Si3360   Si       0.65297    0.37624    0.08034    1.000
    N3361    N        0.69558    0.38670    0.06627    1.000
    Si3362   Si       0.73591    0.38481    0.08288    1.000
    N3363    N        0.55979    0.49289    0.07559    1.000
    Si3364   Si       0.53276    0.45943    0.07012    1.000
    N3365    N        0.51155    0.43922    0.10087    1.000
    Si3366   Si       0.56557    0.50683    0.11446    1.000
    N3367    N        0.62143    0.40027    0.05866    1.000
    Si3368   Si       0.68146    0.47922    0.09912    1.000
    N3369    N        0.66397    0.44211    0.08827    1.000
    N3370    N        0.72161    0.48825    0.09140    1.000
    N3371    N        0.51300    0.28515    0.14898    1.000
    Si3372   Si       0.60000    0.27082    0.13807    1.000
    N3373    N        0.51727    0.35171    0.12057    1.000
    Si3374   Si       0.54529    0.26606    0.17039    1.000
    N3375    N        0.57789    0.29808    0.16768    1.000
    N3376    N        0.60563    0.36298    0.17368    1.000
    Si3377   Si       0.62717    0.35190    0.13755    1.000
    N3378    N        0.64126    0.31099    0.13840    1.000
    N3379    N        0.73381    0.37733    0.12597    1.000
    Si3380   Si       0.69471    0.38095    0.14618    1.000
    N3381    N        0.65434    0.38163    0.12217    1.000
    Si3382   Si       0.65290    0.28669    0.17349    1.000
    N3383    N        0.54090    0.48472    0.14440    1.000
    N3384    N        0.55849    0.40624    0.13895    1.000
    Si3385   Si       0.52906    0.43948    0.13962    1.000
    Si3386   Si       0.58848    0.40468    0.16871    1.000
    N3387    N        0.60590    0.49935    0.12234    1.000
    N3388    N        0.50504    0.44229    0.17869    1.000
    N3389    N        0.61826    0.43392    0.15130    1.000
    N3390    N        0.68970    0.42190    0.15785    1.000
    Si3391   Si       0.62494    0.47842    0.15407    1.000
    Si3392   Si       0.65753    0.42732    0.13007    1.000
    N3393    N        0.66610    0.48013    0.13899    1.000
    Si3394   Si       0.51795    0.34397    0.21708    1.000
    N3395    N        0.56232    0.34789    0.21895    1.000
    N3396    N        0.50520    0.30330    0.20939    1.000
    Si3397   Si       0.59608    0.32793    0.19589    1.000
    N3398    N        0.49315    0.37210    0.18695    1.000
    Si3399   Si       0.58780    0.38000    0.23339    1.000
    Si3400   Si       0.70899    0.32257    0.19323    1.000
    N3401    N        0.63351    0.30355    0.20828    1.000
    Si3402   Si       0.67225    0.36320    0.22147    1.000
    N3403    N        0.68170    0.35570    0.18041    1.000
    N3404    N        0.69639    0.28627    0.17641    1.000
    Si3405   Si       0.56924    0.45015    0.23378    1.000
    Si3406   Si       0.52115    0.48320    0.18517    1.000
    N3407    N        0.57864    0.41533    0.20970    1.000
    N3408    N        0.54672    0.48507    0.21887    1.000
    Si3409   Si       0.70828    0.44493    0.19030    1.000
    N3410    N        0.71562    0.48810    0.18106    1.000
    Si3411   Si       0.64010    0.47969    0.22763    1.000
    N3412    N        0.61761    0.48619    0.19330    1.000
    N3413    N        0.67333    0.45150    0.22121    1.000
    N3414    N        0.52678    0.28782    0.27611    1.000
    N3415    N        0.49505    0.34837    0.25653    1.000
    Si3416   Si       0.51841    0.27213    0.23686    1.000
    Si3417   Si       0.49413    0.31641    0.28497    1.000
    N3418    N        0.65160    0.29535    0.28343    1.000
    Si3419   Si       0.72730    0.32984    0.26341    1.000
    Si3420   Si       0.66227    0.29243    0.24198    1.000
    N3421    N        0.69181    0.32578    0.23592    1.000
    N3422    N        0.63224    0.37231    0.23565    1.000
    Si3423   Si       0.62848    0.38106    0.27914    1.000
    N3424    N        0.58430    0.38235    0.27666    1.000
    N3425    N        0.54005    0.50642    0.28788    1.000
    N3426    N        0.60783    0.46018    0.25140    1.000
    N3427    N        0.54280    0.43527    0.26499    1.000
    Si3428   Si       0.52021    0.46656    0.28499    1.000
    Si3429   Si       0.62422    0.45323    0.29101    1.000
    N3430    N        0.69957    0.39319    0.23926    1.000
    Si3431   Si       0.68469    0.42977    0.25660    1.000
    N3432    N        0.71438    0.45197    0.27805    1.000
    N3433    N        0.65110    0.41884    0.28224    1.000
    N3434    N        0.56525    0.32828    0.31822    1.000
    Si3435   Si       0.53388    0.35151    0.33694    1.000
    Si3436   Si       0.55440    0.28771    0.30919    1.000
    Si3437   Si       0.60675    0.33177    0.33341    1.000
    N3438    N        0.49911    0.32350    0.32700    1.000
    N3439    N        0.61445    0.29000    0.34520    1.000
    N3440    N        0.54950    0.27196    0.35041    1.000
    N3441    N        0.58591    0.26285    0.29395    1.000
    N3442    N        0.63690    0.35246    0.30852    1.000
    Si3443   Si       0.66953    0.32543    0.31226    1.000
    N3444    N        0.71167    0.33313    0.30436    1.000
    Si3445   Si       0.63022    0.26542    0.30716    1.000
    Si3446   Si       0.74234    0.33428    0.33555    1.000
    N3447    N        0.59262    0.44155    0.31645    1.000
    N3448    N        0.53733    0.39426    0.32855    1.000
    N3449    N        0.51104    0.46027    0.32760    1.000
    Si3450   Si       0.56375    0.41394    0.29753    1.000
    N3451    N        0.58852    0.50467    0.34228    1.000
    N3452    N        0.64795    0.48472    0.30845    1.000
    Si3453   Si       0.72115    0.44278    0.32048    1.000
    N3454    N        0.72960    0.40158    0.33168    1.000
    Si3455   Si       0.66190    0.48193    0.34835    1.000
    N3456    N        0.53788    0.34957    0.38056    1.000
    Si3457   Si       0.58637    0.27645    0.37400    1.000
    N3458    N        0.60641    0.35364    0.37038    1.000
    Si3459   Si       0.57675    0.34530    0.39987    1.000
    Si3460   Si       0.50186    0.36360    0.39809    1.000
    N3461    N        0.58162    0.30313    0.40706    1.000
    Si3462   Si       0.65402    0.27953    0.36805    1.000
    N3463    N        0.72892    0.34850    0.37487    1.000
    Si3464   Si       0.64886    0.35085    0.38232    1.000
    N3465    N        0.66648    0.32008    0.35791    1.000
    N3466    N        0.65587    0.26671    0.40825    1.000
    N3467    N        0.56076    0.44391    0.37681    1.000
    N3468    N        0.50103    0.40605    0.38769    1.000
    Si3469   Si       0.52534    0.42671    0.35567    1.000
    Si3470   Si       0.59279    0.46364    0.35519    1.000
    N3471    N        0.49375    0.47405    0.40128    1.000
    N3472    N        0.67013    0.38841    0.37259    1.000
    Si3473   Si       0.71243    0.38989    0.37055    1.000
    N3474    N        0.63092    0.46139    0.37378    1.000
    N3475    N        0.73013    0.41577    0.40201    1.000
    N3476    N        0.69871    0.45864    0.35291    1.000
    Si3477   Si       0.71603    0.45665    0.39330    1.000
    Si3478   Si       0.55897    0.28450    0.43814    1.000
    N3479    N        0.57964    0.36056    0.44128    1.000
    N3480    N        0.50654    0.36096    0.44090    1.000
    Si3481   Si       0.54281    0.35206    0.46302    1.000
    N3482    N        0.52430    0.26423    0.41944    1.000
    N3483    N        0.58698    0.25466    0.45389    1.000
    Si3484   Si       0.61884    0.35308    0.45985    1.000
    N3485    N        0.64316    0.34769    0.42497    1.000
    N3486    N        0.72148    0.29374    0.42415    1.000
    N3487    N        0.73066    0.35843    0.44653    1.000
    Si3488   Si       0.73624    0.27905    0.46514    1.000
    Si3489   Si       0.74079    0.33051    0.41111    1.000
    Si3490   Si       0.56891    0.44802    0.41798    1.000
    N3491    N        0.54121    0.42727    0.44274    1.000
    N3492    N        0.55849    0.49173    0.42212    1.000
    N3493    N        0.61056    0.44999    0.43754    1.000
    Si3494   Si       0.50012    0.43696    0.42163    1.000
    N3495    N        0.68407    0.47186    0.42170    1.000
    Si3496   Si       0.72651    0.40212    0.44346    1.000
    Si3497   Si       0.64092    0.47022    0.41437    1.000
    Si3498   Si       0.70007    0.49818    0.45443    1.000
    Si3499   Si       0.51470    0.28934    0.49546    1.000
    N3500    N        0.53230    0.37616    0.49889    1.000
    N3501    N        0.54280    0.30940    0.46973    1.000
    N3502    N        0.53273    0.25826    0.52107    1.000
    N3503    N        0.61740    0.32724    0.49422    1.000
    N3504    N        0.61975    0.26002    0.51975    1.000
    N3505    N        0.72637    0.30143    0.49952    1.000
    Si3506   Si       0.72224    0.34479    0.48718    1.000
    N3507    N        0.68102    0.34753    0.49873    1.000
    Si3508   Si       0.64078    0.36075    0.52169    1.000
    N3509    N        0.60431    0.49893    0.48108    1.000
    Si3510   Si       0.53814    0.41784    0.48478    1.000
    N3511    N        0.57576    0.43511    0.50037    1.000
    N3512    N        0.50518    0.43884    0.50969    1.000
    Si3513   Si       0.60855    0.45610    0.48019    1.000
    N3514    N        0.69803    0.41405    0.47263    1.000
    N3515    N        0.72600    0.48665    0.48880    1.000
    Si3516   Si       0.66411    0.41203    0.49706    1.000
    N3517    N        0.64385    0.45000    0.50337    1.000
    N3518    N        0.63213    0.38969    0.48001    1.000
    Si3519   Si       0.73428    0.51033    0.52666    1.000
    N3520    N        0.58104    0.30378    0.55144    1.000
    Si3521   Si       0.57663    0.34514    0.56423    1.000
    N3522    N        0.53404    0.35693    0.56387    1.000
    Si3523   Si       0.55512    0.27030    0.55689    1.000
    N3524    N        0.59834    0.37195    0.53914    1.000
    Si3525   Si       0.50702    0.35689    0.52842    1.000
    N3526    N        0.49446    0.31250    0.52818    1.000
    Si3527   Si       0.61917    0.30302    0.52902    1.000
    N3528    N        0.70170    0.26946    0.55908    1.000
    N3529    N        0.64613    0.32874    0.55248    1.000
    N3530    N        0.71547    0.34098    0.56365    1.000
    Si3531   Si       0.72721    0.30454    0.54323    1.000
    Si3532   Si       0.67357    0.34278    0.58241    1.000
    Si3533   Si       0.74115    0.37352    0.55072    1.000
    Si3534   Si       0.58639    0.41358    0.53734    1.000
    Si3535   Si       0.51500    0.44079    0.55200    1.000
    N3536    N        0.60531    0.44798    0.55822    1.000
    N3537    N        0.53603    0.47874    0.55761    1.000
    N3538    N        0.55246    0.41939    0.56659    1.000
    Si3539   Si       0.56904    0.45897    0.57944    1.000
    N3540    N        0.64864    0.50849    0.53885    1.000
    N3541    N        0.66231    0.39514    0.53683    1.000
    N3542    N        0.73105    0.48462    0.56221    1.000
    Si3543   Si       0.64374    0.46558    0.54348    1.000
    Si3544   Si       0.68340    0.41124    0.57254    1.000
    N3545    N        0.72532    0.41304    0.55950    1.000
    N3546    N        0.67093    0.45286    0.57824    1.000
    N3547    N        0.58286    0.36599    0.60358    1.000
    N3548    N        0.49791    0.37312    0.61681    1.000
    N3549    N        0.51936    0.26878    0.58657    1.000
    Si3550   Si       0.59849    0.35611    0.64201    1.000
    Si3551   Si       0.68017    0.27349    0.59711    1.000
    N3552    N        0.67247    0.31245    0.61651    1.000
    N3553    N        0.67358    0.38102    0.60310    1.000
    Si3554   Si       0.54108    0.38728    0.59934    1.000
    N3555    N        0.53305    0.42280    0.62818    1.000
    N3556    N        0.57624    0.48804    0.61118    1.000
    Si3557   Si       0.70074    0.47917    0.59321    1.000
    N3558    N        0.71687    0.48410    0.63576    1.000
    Si3559   Si       0.58862    0.28393    0.67755    1.000
    Si3560   Si       0.53303    0.33859    0.67794    1.000
    N3561    N        0.56259    0.36928    0.66307    1.000
    N3562    N        0.55100    0.30122    0.69234    1.000
    N3563    N        0.60707    0.31310    0.65042    1.000
    Si3564   Si       0.52367    0.26453    0.69078    1.000
    N3565    N        0.49686    0.32194    0.66038    1.000
    N3566    N        0.71752    0.29026    0.67821    1.000
    N3567    N        0.70129    0.35977    0.66770    1.000
    Si3568   Si       0.70207    0.32659    0.69519    1.000
    N3569    N        0.65868    0.31412    0.69688    1.000
    Si3570   Si       0.65128    0.30585    0.65373    1.000
    N3571    N        0.63254    0.38105    0.65523    1.000
    N3572    N        0.65429    0.26032    0.65755    1.000
    N3573    N        0.59247    0.43967    0.66462    1.000
    Si3574   Si       0.57893    0.47983    0.65458    1.000
    Si3575   Si       0.55615    0.41263    0.66376    1.000
    N3576    N        0.54110    0.48717    0.67663    1.000
    N3577    N        0.53334    0.42194    0.69800    1.000
    Si3578   Si       0.67709    0.38918    0.64580    1.000
    N3579    N        0.67351    0.50385    0.67470    1.000
    Si3580   Si       0.62797    0.41884    0.67794    1.000
    N3581    N        0.67191    0.42758    0.67213    1.000
    Si3582   Si       0.69380    0.46623    0.68045    1.000
    N3583    N        0.52723    0.35563    0.71737    1.000
    N3584    N        0.59774    0.33906    0.72914    1.000
    Si3585   Si       0.55545    0.32743    0.73337    1.000
    N3586    N        0.60800    0.27042    0.71484    1.000
    Si3587   Si       0.61895    0.37418    0.74469    1.000
    Si3588   Si       0.63015    0.30534    0.72916    1.000
    N3589    N        0.72607    0.33702    0.72980    1.000
    Si3590   Si       0.69985    0.35376    0.76171    1.000
    N3591    N        0.65552    0.35524    0.75925    1.000
    Si3592   Si       0.51218    0.39474    0.72334    1.000
    N3593    N        0.52021    0.48579    0.74146    1.000
    Si3594   Si       0.51626    0.46230    0.70327    1.000
    Si3595   Si       0.73507    0.49956    0.72505    1.000
    Si3596   Si       0.70021    0.44016    0.75748    1.000
    N3597    N        0.62064    0.41083    0.72076    1.000
    Si3598   Si       0.62263    0.44674    0.74474    1.000
    N3599    N        0.71123    0.39588    0.75805    1.000
    N3600    N        0.62505    0.48344    0.72350    1.000
    N3601    N        0.70937    0.46453    0.72013    1.000
    N3602    N        0.55546    0.32147    0.77724    1.000
    Si3603   Si       0.58516    0.34562    0.80188    1.000
    Si3604   Si       0.52360    0.31967    0.80863    1.000
    N3605    N        0.59370    0.38431    0.78016    1.000
    N3606    N        0.49559    0.35481    0.82041    1.000
    Si3607   Si       0.65652    0.32390    0.78869    1.000
    N3608    N        0.70245    0.32466    0.79284    1.000
    Si3609   Si       0.72555    0.28838    0.79498    1.000
    N3610    N        0.62471    0.33131    0.81500    1.000
    N3611    N        0.64744    0.28776    0.76453    1.000
    N3612    N        0.53903    0.47911    0.81369    1.000
    Si3613   Si       0.58252    0.42101    0.80143    1.000
    Si3614   Si       0.55302    0.47906    0.77052    1.000
    N3615    N        0.58676    0.44982    0.77098    1.000
    N3616    N        0.51425    0.40588    0.76454    1.000
    N3617    N        0.72677    0.45845    0.78684    1.000
    Si3618   Si       0.64963    0.45298    0.81488    1.000
    N3619    N        0.65874    0.44619    0.77295    1.000
    N3620    N        0.52978    0.28405    0.83814    1.000
    N3621    N        0.59609    0.28672    0.85929    1.000
    N3622    N        0.55955    0.34309    0.83757    1.000
    Si3623   Si       0.56024    0.31008    0.86583    1.000
    Si3624   Si       0.55098    0.38181    0.85729    1.000
    Si3625   Si       0.49555    0.27910    0.86481    1.000
    N3626    N        0.73732    0.28476    0.83820    1.000
    N3627    N        0.66752    0.28493    0.84837    1.000
    Si3628   Si       0.63181    0.30959    0.85225    1.000
    Si3629   Si       0.70884    0.27360    0.86943    1.000
    N3630    N        0.71162    0.38101    0.87345    1.000
    N3631    N        0.51137    0.44682    0.88046    1.000
    Si3632   Si       0.51913    0.44538    0.83370    1.000
    N3633    N        0.54815    0.41286    0.82737    1.000
    Si3634   Si       0.61262    0.42575    0.87034    1.000
    N3635    N        0.61625    0.42897    0.82831    1.000
    N3636    N        0.58567    0.39282    0.88500    1.000
    Si3637   Si       0.68757    0.41749    0.87323    1.000
    N3638    N        0.73244    0.49641    0.84909    1.000
    N3639    N        0.64161    0.49254    0.83834    1.000
    Si3640   Si       0.72373    0.45808    0.82885    1.000
    Si3641   Si       0.62196    0.49888    0.87635    1.000
    N3642    N        0.68575    0.43933    0.83550    1.000
    N3643    N        0.56204    0.32375    0.90696    1.000
    Si3644   Si       0.53132    0.35156    0.92192    1.000
    N3645    N        0.51825    0.37627    0.88553    1.000
    Si3646   Si       0.59567    0.31987    0.93456    1.000
    N3647    N        0.51337    0.26737    0.90359    1.000
    Si3648   Si       0.62169    0.37178    0.90105    1.000
    N3649    N        0.69831    0.30432    0.89908    1.000
    Si3650   Si       0.66133    0.31446    0.91704    1.000
    Si3651   Si       0.72974    0.30018    0.93057    1.000
    N3652    N        0.62875    0.28708    0.93101    1.000
    N3653    N        0.63806    0.33543    0.88581    1.000
    N3654    N        0.73649    0.34368    0.93932    1.000
    Si3655   Si       0.50528    0.48374    0.90170    1.000
    N3656    N        0.54045    0.48485    0.92787    1.000
    N3657    N        0.61790    0.46015    0.89718    1.000
    N3658    N        0.69689    0.44446    0.90455    1.000
    Si3659   Si       0.62910    0.44514    0.93650    1.000
    N3660    N        0.64818    0.40267    0.88404    1.000
    Si3661   Si       0.73037    0.44585    0.92931    1.000
    N3662    N        0.58150    0.31119    0.97346    1.000
    Si3663   Si       0.57131    0.27259    0.99079    1.000
    Si3664   Si       0.49466    0.33454    0.98628    1.000
    N3665    N        0.50422    0.32714    0.94406    1.000
    N3666    N        0.54011    0.38343    0.94905    1.000
    N3667    N        0.61131    0.36308    0.94251    1.000
    N3668    N        0.70487    0.28354    0.96206    1.000
    Si3669   Si       0.64963    0.37148    0.96603    1.000
    N3670    N        0.66912    0.33567    0.95469    1.000
    Si3671   Si       0.68732    0.31572    0.98917    1.000
    N3672    N        0.58821    0.43519    0.95408    1.000
    Si3673   Si       0.58120    0.39332    0.96036    1.000
    Si3674   Si       0.50436    0.40371    0.96643    1.000
    N3675    N        0.52139    0.44219    0.97841    1.000
    Si3676   Si       0.55672    0.46357    0.96187    1.000
    N3677    N        0.71633    0.45928    0.97032    1.000
    N3678    N        0.65364    0.41341    0.95598    1.000
    N3679    N        0.65026    0.47831    0.95733    1.000
    Si3680   Si       0.67341    0.44724    0.97807    1.000
    N3681    N        0.72898    0.39404    0.00278    1.000
    N3682    N        0.54453    0.61057    0.03522    1.000
    Si3683   Si       0.50534    0.59330    0.02754    1.000
    Si3684   Si       0.57491    0.59775    0.00526    1.000
    N3685    N        0.61391    0.60556    0.02661    1.000
    N3686    N        0.49643    0.55921    0.05259    1.000
    N3687    N        0.62209    0.53387    0.01363    1.000
    Si3688   Si       0.70106    0.54991    0.04130    1.000
    N3689    N        0.66584    0.57460    0.04127    1.000
    N3690    N        0.72882    0.57213    0.01124    1.000
    Si3691   Si       0.64259    0.57145    0.00254    1.000
    N3692    N        0.69097    0.51226    0.01980    1.000
    Si3693   Si       0.50484    0.72627    0.04610    1.000
    N3694    N        0.54922    0.72554    0.04392    1.000
    Si3695   Si       0.64039    0.63668    0.00490    1.000
    N3696    N        0.66399    0.65485    0.03565    1.000
    N3697    N        0.72653    0.67128    0.02321    1.000
    Si3698   Si       0.64321    0.69160    0.05041    1.000
    N3699    N        0.64624    0.72615    0.02479    1.000
    Si3700   Si       0.69960    0.66473    0.05852    1.000
    Si3701   Si       0.54343    0.62277    0.07861    1.000
    N3702    N        0.57999    0.61968    0.09812    1.000
    N3703    N        0.51427    0.60304    0.10497    1.000
    Si3704   Si       0.58504    0.58109    0.11971    1.000
    N3705    N        0.61695    0.56261    0.09207    1.000
    N3706    N        0.64385    0.62420    0.09315    1.000
    Si3707   Si       0.63371    0.59375    0.06506    1.000
    N3708    N        0.73409    0.55122    0.06788    1.000
    Si3709   Si       0.63624    0.52920    0.11253    1.000
    N3710    N        0.66037    0.51310    0.07837    1.000
    N3711    N        0.71343    0.63736    0.09264    1.000
    Si3712   Si       0.56336    0.69371    0.07146    1.000
    Si3713   Si       0.60974    0.65088    0.09902    1.000
    N3714    N        0.60437    0.67850    0.06577    1.000
    N3715    N        0.53005    0.66420    0.07450    1.000
    N3716    N        0.56252    0.71388    0.10940    1.000
    N3717    N        0.49219    0.73646    0.08700    1.000
    Si3718   Si       0.68569    0.73536    0.09515    1.000
    N3719    N        0.67801    0.69814    0.07725    1.000
    Si3720   Si       0.52136    0.61196    0.14914    1.000
    N3721    N        0.60295    0.59112    0.15744    1.000
    Si3722   Si       0.51948    0.54014    0.14758    1.000
    N3723    N        0.55753    0.54851    0.12572    1.000
    N3724    N        0.51861    0.57640    0.17289    1.000
    N3725    N        0.49301    0.51542    0.17706    1.000
    N3726    N        0.68124    0.59974    0.15075    1.000
    N3727    N        0.71072    0.54107    0.13393    1.000
    N3728    N        0.65054    0.54086    0.15181    1.000
    Si3729   Si       0.71493    0.57312    0.16419    1.000
    Si3730   Si       0.64385    0.58139    0.16737    1.000
    Si3731   Si       0.68691    0.51566    0.16208    1.000
    Si3732   Si       0.67954    0.63123    0.12067    1.000
    N3733    N        0.55276    0.63884    0.16303    1.000
    N3734    N        0.59361    0.75264    0.15978    1.000
    N3735    N        0.50684    0.70055    0.14465    1.000
    Si3736   Si       0.58759    0.71031    0.14309    1.000
    Si3737   Si       0.52199    0.73051    0.11846    1.000
    N3738    N        0.61167    0.67389    0.13505    1.000
    Si3739   Si       0.52994    0.67566    0.17317    1.000
    N3740    N        0.71564    0.72501    0.12722    1.000
    Si3741   Si       0.71727    0.69006    0.15455    1.000
    Si3742   Si       0.64413    0.67673    0.16629    1.000
    N3743    N        0.68220    0.66705    0.14644    1.000
    N3744    N        0.65142    0.74541    0.11882    1.000
    Si3745   Si       0.64037    0.75340    0.15951    1.000
    N3746    N        0.57929    0.62535    0.22488    1.000
    Si3747   Si       0.59212    0.62802    0.18229    1.000
    Si3748   Si       0.49516    0.56573    0.20830    1.000
    N3749    N        0.50562    0.60852    0.23350    1.000
    N3750    N        0.70219    0.54495    0.19692    1.000
    N3751    N        0.64499    0.58051    0.21070    1.000
    Si3752   Si       0.65401    0.62143    0.22292    1.000
    Si3753   Si       0.73595    0.51602    0.20790    1.000
    Si3754   Si       0.67175    0.55393    0.22862    1.000
    Si3755   Si       0.57354    0.73673    0.19977    1.000
    N3756    N        0.50426    0.67443    0.21063    1.000
    N3757    N        0.56527    0.70009    0.17865    1.000
    N3758    N        0.59632    0.72014    0.23226    1.000
    N3759    N        0.64345    0.71537    0.18297    1.000
    Si3760   Si       0.63749    0.71911    0.22455    1.000
    N3761    N        0.63246    0.64406    0.19206    1.000
    Si3762   Si       0.70233    0.68356    0.23182    1.000
    N3763    N        0.72286    0.70185    0.19617    1.000
    N3764    N        0.69409    0.63769    0.22778    1.000
    N3765    N        0.55041    0.61533    0.27941    1.000
    Si3766   Si       0.54166    0.52075    0.24574    1.000
    Si3767   Si       0.50762    0.62914    0.27567    1.000
    N3768    N        0.50039    0.53720    0.23961    1.000
    Si3769   Si       0.59195    0.63251    0.26683    1.000
    N3770    N        0.56405    0.55533    0.23689    1.000
    Si3771   Si       0.54860    0.59698    0.23874    1.000
    Si3772   Si       0.72707    0.55138    0.27280    1.000
    N3773    N        0.65712    0.51528    0.24502    1.000
    N3774    N        0.68918    0.57901    0.26157    1.000
    N3775    N        0.63520    0.62152    0.26571    1.000
    Si3776   Si       0.71781    0.61246    0.25270    1.000
    Si3777   Si       0.66016    0.51857    0.28741    1.000
    Si3778   Si       0.65808    0.58982    0.29241    1.000
    N3779    N        0.73896    0.51268    0.25171    1.000
    Si3780   Si       0.58808    0.71307    0.27406    1.000
    Si3781   Si       0.52312    0.74658    0.25884    1.000
    N3782    N        0.54503    0.71460    0.28038    1.000
    N3783    N        0.60079    0.67147    0.28379    1.000
    N3784    N        0.49443    0.67069    0.27736    1.000
    N3785    N        0.71895    0.70504    0.26555    1.000
    N3786    N        0.73313    0.64270    0.28200    1.000
    N3787    N        0.64899    0.75620    0.24100    1.000
    N3788    N        0.65884    0.68874    0.24716    1.000
    Si3789   Si       0.71646    0.74719    0.27106    1.000
    Si3790   Si       0.64735    0.66188    0.27789    1.000
    N3791    N        0.57374    0.55907    0.31914    1.000
    N3792    N        0.59591    0.62628    0.33176    1.000
    Si3793   Si       0.56337    0.59950    0.31878    1.000
    Si3794   Si       0.55256    0.52183    0.32530    1.000
    Si3795   Si       0.61306    0.54347    0.33533    1.000
    N3796    N        0.51721    0.52336    0.35154    1.000
    N3797    N        0.63678    0.55127    0.30001    1.000
    N3798    N        0.69899    0.53156    0.30094    1.000
    N3799    N        0.67639    0.59312    0.33182    1.000
    Si3800   Si       0.68909    0.55082    0.33997    1.000
    Si3801   Si       0.67074    0.63262    0.35097    1.000
    Si3802   Si       0.60171    0.74111    0.34207    1.000
    Si3803   Si       0.51443    0.69525    0.30720    1.000
    N3804    N        0.53591    0.66993    0.33498    1.000
    Si3805   Si       0.60992    0.66607    0.32778    1.000
    N3806    N        0.61420    0.73645    0.30135    1.000
    N3807    N        0.65288    0.65969    0.32095    1.000
    Si3808   Si       0.51128    0.56465    0.36550    1.000
    Si3809   Si       0.60131    0.61229    0.37307    1.000
    N3810    N        0.61249    0.56987    0.37188    1.000
    N3811    N        0.52453    0.55335    0.40449    1.000
    N3812    N        0.53382    0.59774    0.35166    1.000
    N3813    N        0.72646    0.54312    0.36110    1.000
    Si3814   Si       0.64142    0.54713    0.39308    1.000
    Si3815   Si       0.71845    0.55305    0.40257    1.000
    N3816    N        0.65869    0.52551    0.35881    1.000
    N3817    N        0.64063    0.63066    0.38489    1.000
    N3818    N        0.56943    0.63644    0.39186    1.000
    N3819    N        0.55888    0.74423    0.35366    1.000
    N3820    N        0.59817    0.69791    0.35495    1.000
    N3821    N        0.53421    0.69215    0.39747    1.000
    Si3822   Si       0.53205    0.63785    0.36896    1.000
    Si3823   Si       0.55456    0.70041    0.35953    1.000
    Si3824   Si       0.70169    0.66919    0.40567    1.000
    N3825    N        0.70707    0.65431    0.36443    1.000
    Si3826   Si       0.53185    0.55598    0.44774    1.000
    N3827    N        0.57449    0.55285    0.45032    1.000
    N3828    N        0.50560    0.51975    0.45130    1.000
    Si3829   Si       0.59075    0.51376    0.44325    1.000
    Si3830   Si       0.51961    0.50879    0.40961    1.000
    Si3831   Si       0.59825    0.58500    0.46910    1.000
    N3832    N        0.63503    0.59589    0.44595    1.000
    Si3833   Si       0.72338    0.61168    0.44291    1.000
    Si3834   Si       0.66774    0.56777    0.45575    1.000
    N3835    N        0.62521    0.51324    0.41742    1.000
    N3836    N        0.72876    0.51978    0.42744    1.000
    Si3837   Si       0.64701    0.63222    0.42847    1.000
    N3838    N        0.67744    0.56194    0.41230    1.000
    N3839    N        0.52140    0.63740    0.43732    1.000
    N3840    N        0.55283    0.69441    0.45677    1.000
    Si3841   Si       0.52239    0.71785    0.43420    1.000
    Si3842   Si       0.55552    0.66333    0.42372    1.000
    N3843    N        0.48914    0.71950    0.46085    1.000
    N3844    N        0.62438    0.74427    0.43300    1.000
    Si3845   Si       0.71213    0.73633    0.41479    1.000
    N3846    N        0.62783    0.66663    0.44830    1.000
    N3847    N        0.71500    0.74893    0.45426    1.000
    N3848    N        0.68087    0.70429    0.41964    1.000
    N3849    N        0.69135    0.63511    0.42862    1.000
    Si3850   Si       0.64460    0.70695    0.44338    1.000
    Si3851   Si       0.53619    0.62528    0.47658    1.000
    N3852    N        0.52290    0.58525    0.47777    1.000
    Si3853   Si       0.50075    0.57712    0.51317    1.000
    N3854    N        0.57986    0.62325    0.47819    1.000
    N3855    N        0.49939    0.53457    0.51876    1.000
    N3856    N        0.62265    0.56685    0.50206    1.000
    Si3857   Si       0.72168    0.58259    0.51106    1.000
    Si3858   Si       0.63478    0.52361    0.50174    1.000
    N3859    N        0.70354    0.58492    0.47113    1.000
    N3860    N        0.64332    0.63653    0.51183    1.000
    N3861    N        0.66647    0.52512    0.47051    1.000
    N3862    N        0.59139    0.68458    0.51512    1.000
    Si3863   Si       0.54977    0.68943    0.50080    1.000
    N3864    N        0.52260    0.65561    0.50588    1.000
    N3865    N        0.52992    0.72304    0.52146    1.000
    Si3866   Si       0.61022    0.65461    0.48832    1.000
    N3867    N        0.70230    0.74979    0.51755    1.000
    Si3868   Si       0.65941    0.74257    0.51841    1.000
    N3869    N        0.70718    0.67897    0.51001    1.000
    Si3870   Si       0.70740    0.71778    0.48623    1.000
    N3871    N        0.66062    0.71717    0.48243    1.000
    N3872    N        0.59784    0.59760    0.55760    1.000
    Si3873   Si       0.55805    0.58534    0.56501    1.000
    N3874    N        0.52374    0.59991    0.54243    1.000
    N3875    N        0.54592    0.54217    0.57084    1.000
    Si3876   Si       0.51546    0.51594    0.55397    1.000
    N3877    N        0.65368    0.57621    0.56181    1.000
    Si3878   Si       0.67545    0.53900    0.55836    1.000
    N3879    N        0.70725    0.61378    0.53425    1.000
    N3880    N        0.70986    0.54697    0.53114    1.000
    Si3881   Si       0.63350    0.59696    0.53003    1.000
    Si3882   Si       0.71531    0.63158    0.57438    1.000
    Si3883   Si       0.51147    0.64227    0.54527    1.000
    Si3884   Si       0.54308    0.74378    0.55724    1.000
    Si3885   Si       0.60702    0.70121    0.55578    1.000
    N3886    N        0.58784    0.73976    0.56706    1.000
    N3887    N        0.53922    0.66568    0.57040    1.000
    N3888    N        0.60571    0.66962    0.58550    1.000
    Si3889   Si       0.73599    0.75076    0.54859    1.000
    Si3890   Si       0.68074    0.64914    0.52701    1.000
    N3891    N        0.67622    0.65526    0.57221    1.000
    Si3892   Si       0.67858    0.70120    0.58065    1.000
    N3893    N        0.64925    0.71664    0.55221    1.000
    N3894    N        0.71582    0.72551    0.58037    1.000
    N3895    N        0.55147    0.60685    0.60328    1.000
    N3896    N        0.60485    0.55400    0.60942    1.000
    Si3897   Si       0.52552    0.58553    0.63110    1.000
    Si3898   Si       0.56906    0.53009    0.60404    1.000
    N3899    N        0.54913    0.54796    0.63980    1.000
    Si3900   Si       0.62385    0.58706    0.59100    1.000
    N3901    N        0.63054    0.61827    0.61887    1.000
    N3902    N        0.68329    0.51956    0.59664    1.000
    N3903    N        0.72946    0.62541    0.61676    1.000
    Si3904   Si       0.69329    0.52181    0.64051    1.000
    N3905    N        0.71395    0.55912    0.64505    1.000
    Si3906   Si       0.52569    0.69002    0.60477    1.000
    N3907    N        0.55278    0.66920    0.63175    1.000
    Si3908   Si       0.56893    0.64702    0.59883    1.000
    N3909    N        0.52396    0.73062    0.59367    1.000
    Si3910   Si       0.49824    0.75796    0.61651    1.000
    Si3911   Si       0.64251    0.65523    0.60176    1.000
    N3912    N        0.66041    0.69041    0.61994    1.000
    N3913    N        0.52010    0.61182    0.66680    1.000
    Si3914   Si       0.52723    0.52641    0.66868    1.000
    N3915    N        0.60136    0.58925    0.67649    1.000
    Si3916   Si       0.59333    0.55430    0.65276    1.000
    N3917    N        0.60360    0.51387    0.66686    1.000
    N3918    N        0.51834    0.55154    0.70224    1.000
    Si3919   Si       0.50745    0.59420    0.70433    1.000
    Si3920   Si       0.62898    0.62149    0.66197    1.000
    N3921    N        0.66934    0.62072    0.67556    1.000
    Si3922   Si       0.73759    0.55956    0.68212    1.000
    Si3923   Si       0.63839    0.51494    0.69201    1.000
    N3924    N        0.54485    0.67444    0.69429    1.000
    N3925    N        0.60905    0.65821    0.67189    1.000
    Si3926   Si       0.57590    0.68416    0.66617    1.000
    N3927    N        0.58648    0.72436    0.65858    1.000
    Si3928   Si       0.51973    0.65380    0.66325    1.000
    Si3929   Si       0.60972    0.75685    0.67083    1.000
    N3930    N        0.66323    0.68448    0.69682    1.000
    Si3931   Si       0.69481    0.65048    0.69521    1.000
    N3932    N        0.69315    0.74017    0.64206    1.000
    N3933    N        0.71358    0.67234    0.66291    1.000
    N3934    N        0.64781    0.74732    0.68861    1.000
    Si3935   Si       0.68109    0.70109    0.65693    1.000
    N3936    N        0.51618    0.62308    0.73655    1.000
    N3937    N        0.57619    0.58197    0.75016    1.000
    Si3938   Si       0.50152    0.52663    0.73834    1.000
    Si3939   Si       0.60813    0.58502    0.71804    1.000
    Si3940   Si       0.61611    0.51971    0.74898    1.000
    N3941    N        0.62606    0.62331    0.73119    1.000
    N3942    N        0.62982    0.54895    0.71938    1.000
    N3943    N        0.70963    0.53128    0.73895    1.000
    Si3944   Si       0.72308    0.60610    0.74518    1.000
    N3945    N        0.68348    0.59053    0.76110    1.000
    N3946    N        0.52628    0.75788    0.71322    1.000
    Si3947   Si       0.53066    0.73477    0.75140    1.000
    N3948    N        0.51023    0.69714    0.74713    1.000
    Si3949   Si       0.53321    0.66305    0.73262    1.000
    N3950    N        0.56673    0.65843    0.76242    1.000
    Si3951   Si       0.65324    0.71946    0.72181    1.000
    Si3952   Si       0.70690    0.75566    0.75484    1.000
    N3953    N        0.61805    0.69741    0.73707    1.000
    Si3954   Si       0.62584    0.66304    0.71149    1.000
    N3955    N        0.68616    0.71829    0.75040    1.000
    N3956    N        0.70975    0.64709    0.73559    1.000
    N3957    N        0.54459    0.60684    0.80246    1.000
    Si3958   Si       0.50880    0.60222    0.77430    1.000
    Si3959   Si       0.55509    0.55295    0.77718    1.000
    Si3960   Si       0.57771    0.61878    0.77688    1.000
    N3961    N        0.51271    0.55881    0.76626    1.000
    N3962    N        0.57580    0.51671    0.76273    1.000
    N3963    N        0.61614    0.61026    0.79580    1.000
    N3964    N        0.64354    0.53046    0.77964    1.000
    N3965    N        0.69649    0.53891    0.80695    1.000
    Si3966   Si       0.65008    0.61903    0.76775    1.000
    Si3967   Si       0.65412    0.53042    0.82166    1.000
    Si3968   Si       0.68142    0.54814    0.76723    1.000
    N3969    N        0.50979    0.75407    0.78186    1.000
    N3970    N        0.60747    0.68710    0.80884    1.000
    Si3971   Si       0.59141    0.69458    0.77098    1.000
    N3972    N        0.56975    0.73317    0.77093    1.000
    N3973    N        0.73245    0.68451    0.79149    1.000
    Si3974   Si       0.74100    0.72209    0.81356    1.000
    N3975    N        0.66689    0.65587    0.78326    1.000
    N3976    N        0.73940    0.75497    0.78365    1.000
    Si3977   Si       0.69793    0.67732    0.76470    1.000
    N3978    N        0.58502    0.60650    0.85806    1.000
    Si3979   Si       0.55136    0.58469    0.83874    1.000
    N3980    N        0.51944    0.57712    0.86805    1.000
    N3981    N        0.57984    0.51431    0.87651    1.000
    N3982    N        0.51258    0.51201    0.86890    1.000
    Si3983   Si       0.54773    0.51100    0.84344    1.000
    N3984    N        0.55483    0.54562    0.81974    1.000
    Si3985   Si       0.62263    0.60351    0.83671    1.000
    Si3986   Si       0.72568    0.53752    0.83882    1.000
    N3987    N        0.64048    0.56418    0.84453    1.000
    N3988    N        0.70807    0.55709    0.87418    1.000
    N3989    N        0.61033    0.74031    0.85125    1.000
    N3990    N        0.54571    0.71867    0.84120    1.000
    N3991    N        0.50202    0.66485    0.84615    1.000
    N3992    N        0.57430    0.67282    0.86891    1.000
    Si3993   Si       0.53095    0.68715    0.86733    1.000
    Si3994   Si       0.58672    0.70517    0.84334    1.000
    Si3995   Si       0.52736    0.75381    0.82408    1.000
    N3996    N        0.64741    0.63645    0.84960    1.000
    N3997    N        0.67194    0.70167    0.83306    1.000
    N3998    N        0.72515    0.73417    0.85211    1.000
    Si3999   Si       0.68107    0.73669    0.85591    1.000
    Si4000   Si       0.64712    0.67024    0.82032    1.000
    Si4001   Si       0.52359    0.58740    0.90952    1.000
    N4002    N        0.54597    0.62524    0.91195    1.000
    Si4003   Si       0.56334    0.52013    0.91858    1.000
    N4004    N        0.53458    0.55261    0.93211    1.000
    N4005    N        0.66387    0.59669    0.90692    1.000
    N4006    N        0.64847    0.52612    0.89878    1.000
    Si4007   Si       0.73608    0.57593    0.90300    1.000
    Si4008   Si       0.66481    0.56241    0.88148    1.000
    Si4009   Si       0.58142    0.63534    0.89013    1.000
    N4010    N        0.51026    0.70088    0.90456    1.000
    Si4011   Si       0.53839    0.71687    0.93619    1.000
    N4012    N        0.55221    0.75837    0.93176    1.000
    N4013    N        0.61625    0.64075    0.91392    1.000
    Si4014   Si       0.72286    0.67941    0.91976    1.000
    Si4015   Si       0.68708    0.73816    0.93417    1.000
    N4016    N        0.68590    0.66428    0.90730    1.000
    Si4017   Si       0.65567    0.63707    0.89462    1.000
    N4018    N        0.72875    0.72474    0.92111    1.000
    N4019    N        0.66763    0.74003    0.89764    1.000
    Si4020   Si       0.52221    0.54967    0.97502    1.000
    Si4021   Si       0.58830    0.52604    0.98700    1.000
    N4022    N        0.57749    0.62458    0.97141    1.000
    N4023    N        0.59617    0.51942    0.94592    1.000
    N4024    N        0.49628    0.58298    0.98683    1.000
    N4025    N        0.49701    0.51571    0.99201    1.000
    N4026    N        0.56011    0.55888    0.99371    1.000
    N4027    N        0.65651    0.60878    0.97807    1.000
    N4028    N        0.65390    0.55092    0.96309    1.000
    Si4029   Si       0.67364    0.58605    0.94795    1.000
    Si4030   Si       0.64064    0.51675    0.94095    1.000
    N4031    N        0.71604    0.57751    0.94141    1.000
    Si4032   Si       0.54359    0.64415    0.95168    1.000
    Si4033   Si       0.60138    0.65638    0.95133    1.000
    N4034    N        0.50825    0.64829    0.97367    1.000
    N4035    N        0.51704    0.71877    0.97512    1.000
    N4036    N        0.56700    0.68180    0.94298    1.000
    N4037    N        0.68427    0.70777    0.96674    1.000
    N4038    N        0.73952    0.66441    0.95553    1.000
    Si4039   Si       0.64482    0.71016    0.98443    1.000
    N4040    N        0.62340    0.74519    0.96508    1.000
    Si4041   Si       0.71974    0.69251    0.98516    1.000
    N4042    N        0.62549    0.67144    0.98475    1.000
    N4043    N        0.52169    0.84148    0.01270    1.000
    N4044    N        0.59156    0.83696    0.04541    1.000
    Si4045   Si       0.54658    0.83279    0.04508    1.000
    Si4046   Si       0.57010    0.76415    0.03736    1.000
    N4047    N        0.49231    0.76012    0.02062    1.000
    Si4048   Si       0.61859    0.84027    0.01237    1.000
    Si4049   Si       0.64759    0.76865    0.03884    1.000
    N4050    N        0.65339    0.86781    0.02272    1.000
    N4051    N        0.64098    0.80117    0.00769    1.000
    Si4052   Si       0.73923    0.83404    0.02586    1.000
    N4053    N        0.71014    0.82974    0.05683    1.000
    N4054    N        0.50434    0.94948    0.00878    1.000
    N4055    N        0.56187    0.91291    0.01589    1.000
    Si4056   Si       0.59850    0.00126    0.01573    1.000
    Si4057   Si       0.52741    0.98529    0.00935    1.000
    N4058    N        0.56409    0.97640    0.03336    1.000
    Si4059   Si       0.56190    0.93499    0.05234    1.000
    Si4060   Si       0.52052    0.90898    0.00270    1.000
    N4061    N        0.65169    0.93868    0.00352    1.000
    N4062    N        0.70498    0.91600    0.03811    1.000
    Si4063   Si       0.65811    0.96812    0.03508    1.000
    N4064    N        0.69998    0.98018    0.02893    1.000
    N4065    N        0.63646    0.00453    0.03422    1.000
    Si4066   Si       0.72989    0.94921    0.02439    1.000
    Si4067   Si       0.67599    0.90300    0.00779    1.000
    Si4068   Si       0.52082    0.80241    0.09523    1.000
    N4069    N        0.52840    0.84598    0.08455    1.000
    Si4070   Si       0.60879    0.81281    0.07886    1.000
    N4071    N        0.54567    0.79152    0.06140    1.000
    N4072    N        0.60790    0.77428    0.05818    1.000
    Si4073   Si       0.50862    0.88283    0.09460    1.000
    Si4074   Si       0.71765    0.82932    0.09940    1.000
    N4075    N        0.64793    0.82623    0.08290    1.000
    N4076    N        0.73571    0.79046    0.10393    1.000
    Si4077   Si       0.72660    0.78060    0.05937    1.000
    N4078    N        0.67920    0.88309    0.08914    1.000
    N4079    N        0.68479    0.76597    0.06268    1.000
    Si4080   Si       0.67288    0.85102    0.05876    1.000
    N4081    N        0.59515    0.93240    0.07806    1.000
    N4082    N        0.51446    0.99092    0.09577    1.000
    N4083    N        0.52699    0.91490    0.07189    1.000
    N4084    N        0.72742    0.93141    0.10762    1.000
    Si4085   Si       0.69303    0.92261    0.08011    1.000
    N4086    N        0.66250    0.95375    0.07658    1.000
    Si4087   Si       0.64417    0.97851    0.10654    1.000
    N4088    N        0.72575    0.01298    0.08465    1.000
    Si4089   Si       0.57116    0.78688    0.14255    1.000
    Si4090   Si       0.60325    0.85255    0.14850    1.000
    N4091    N        0.53297    0.77205    0.12832    1.000
    N4092    N        0.59096    0.81858    0.11993    1.000
    N4093    N        0.56845    0.87078    0.17169    1.000
    Si4094   Si       0.66481    0.87283    0.12975    1.000
    N4095    N        0.69793    0.84150    0.13623    1.000
    N4096    N        0.64169    0.84453    0.17037    1.000
    Si4097   Si       0.68311    0.82270    0.17332    1.000
    Si4098   Si       0.60306    0.92310    0.12012    1.000
    N4099    N        0.50104    0.95631    0.15908    1.000
    Si4100   Si       0.53311    0.96864    0.12965    1.000
    N4101    N        0.56487    0.99795    0.14127    1.000
    N4102    N        0.50562    0.89291    0.13849    1.000
    N4103    N        0.56221    0.93408    0.14112    1.000
    Si4104   Si       0.54027    0.90328    0.16446    1.000
    Si4105   Si       0.58940    0.97140    0.16722    1.000
    Si4106   Si       0.72146    0.92568    0.15152    1.000
    N4107    N        0.62118    0.88531    0.12678    1.000
    Si4108   Si       0.65342    0.98082    0.17062    1.000
    N4109    N        0.67823    0.99027    0.13353    1.000
    N4110    N        0.62449    0.95585    0.13985    1.000
    N4111    N        0.68351    0.90345    0.15784    1.000
    Si4112   Si       0.56257    0.84032    0.20476    1.000
    Si4113   Si       0.52469    0.79003    0.20124    1.000
    N4114    N        0.52852    0.82628    0.22900    1.000
    N4115    N        0.55886    0.80741    0.17849    1.000
    N4116    N        0.59851    0.83392    0.22814    1.000
    N4117    N        0.54122    0.75572    0.22112    1.000
    Si4118   Si       0.63634    0.84755    0.21401    1.000
    Si4119   Si       0.67549    0.78180    0.21952    1.000
    N4120    N        0.72229    0.82787    0.19372    1.000
    N4121    N        0.66931    0.78059    0.17804    1.000
    N4122    N        0.71525    0.76317    0.22817    1.000
    N4123    N        0.67043    0.82308    0.22508    1.000
    Si4124   Si       0.71052    0.84388    0.23518    1.000
    N4125    N        0.56731    0.96463    0.20631    1.000
    N4126    N        0.51937    0.90586    0.20583    1.000
    Si4127   Si       0.54765    0.93145    0.22785    1.000
    N4128    N        0.66326    0.94920    0.19876    1.000
    N4129    N        0.70014    0.88532    0.21927    1.000
    Si4130   Si       0.66779    0.90730    0.19786    1.000
    N4131    N        0.72822    0.95779    0.18063    1.000
    Si4132   Si       0.69913    0.97258    0.21209    1.000
    N4133    N        0.61762    0.00351    0.18273    1.000
    N4134    N        0.63437    0.89027    0.21963    1.000
    N4135    N        0.68226    0.00784    0.19678    1.000
    Si4136   Si       0.52416    0.82402    0.27213    1.000
    Si4137   Si       0.60010    0.83280    0.27333    1.000
    N4138    N        0.52295    0.78218    0.28353    1.000
    N4139    N        0.55901    0.84516    0.28708    1.000
    N4140    N        0.62047    0.86925    0.28544    1.000
    Si4141   Si       0.64324    0.76527    0.28342    1.000
    N4142    N        0.71606    0.83468    0.28252    1.000
    N4143    N        0.68612    0.77143    0.29139    1.000
    N4144    N        0.52213    0.96059    0.25043    1.000
    N4145    N        0.57237    0.90939    0.25453    1.000
    Si4146   Si       0.61762    0.90382    0.25739    1.000
    Si4147   Si       0.54803    0.99586    0.23364    1.000
    Si4148   Si       0.73814    0.93772    0.26458    1.000
    N4149    N        0.72912    0.90103    0.28463    1.000
    N4150    N        0.63958    0.93726    0.27140    1.000
    N4151    N        0.70234    0.95925    0.25485    1.000
    Si4152   Si       0.67144    0.96167    0.28838    1.000
    Si4153   Si       0.49712    0.77184    0.31756    1.000
    Si4154   Si       0.61122    0.87695    0.32591    1.000
    N4155    N        0.60499    0.84138    0.34808    1.000
    Si4156   Si       0.62896    0.80844    0.33511    1.000
    Si4157   Si       0.70154    0.80670    0.31112    1.000
    N4158    N        0.66987    0.82866    0.33284    1.000
    N4159    N        0.73051    0.78991    0.34027    1.000
    N4160    N        0.61957    0.80009    0.29308    1.000
    N4161    N        0.51305    0.90072    0.30574    1.000
    N4162    N        0.55297    0.96466    0.31978    1.000
    Si4163   Si       0.58877    0.94745    0.33959    1.000
    Si4164   Si       0.51726    0.93918    0.32354    1.000
    N4165    N        0.57831    0.90571    0.32476    1.000
    Si4166   Si       0.55867    0.00753    0.30890    1.000
    Si4167   Si       0.55482    0.89026    0.29114    1.000
    Si4168   Si       0.63634    0.00469    0.33082    1.000
    N4169    N        0.66251    0.00355    0.29559    1.000
    N4170    N        0.64413    0.89434    0.34446    1.000
    N4171    N        0.69151    0.94049    0.32001    1.000
    Si4172   Si       0.72465    0.91180    0.33058    1.000
    N4173    N        0.63015    0.96075    0.33557    1.000
    Si4174   Si       0.66156    0.93352    0.35063    1.000
    Si4175   Si       0.58005    0.84143    0.38428    1.000
    Si4176   Si       0.51298    0.83552    0.37013    1.000
    N4177    N        0.54433    0.86416    0.37171    1.000
    Si4178   Si       0.53872    0.77265    0.37629    1.000
    N4179    N        0.56092    0.80615    0.39592    1.000
    N4180    N        0.51215    0.79600    0.35007    1.000
    Si4181   Si       0.71361    0.86406    0.40104    1.000
    Si4182   Si       0.72579    0.78956    0.38383    1.000
    N4183    N        0.67003    0.85184    0.39953    1.000
    N4184    N        0.62553    0.77351    0.36205    1.000
    Si4185   Si       0.64433    0.77044    0.40171    1.000
    Si4186   Si       0.67027    0.86465    0.35869    1.000
    N4187    N        0.68776    0.76829    0.39334    1.000
    N4188    N        0.73299    0.82482    0.40414    1.000
    N4189    N        0.70647    0.88997    0.36526    1.000
    N4190    N        0.49385    0.00109    0.38691    1.000
    N4191    N        0.58324    0.94064    0.38366    1.000
    Si4192   Si       0.55245    0.90756    0.38309    1.000
    N4193    N        0.51718    0.93120    0.36842    1.000
    Si4194   Si       0.66108    0.99328    0.40157    1.000
    N4195    N        0.67302    0.95560    0.38581    1.000
    Si4196   Si       0.54734    0.79325    0.43595    1.000
    N4197    N        0.60246    0.86394    0.41541    1.000
    N4198    N        0.52872    0.82452    0.45981    1.000
    N4199    N        0.57776    0.78917    0.46519    1.000
    N4200    N        0.52903    0.75808    0.41934    1.000
    Si4201   Si       0.61897    0.77857    0.46036    1.000
    N4202    N        0.72232    0.87088    0.44250    1.000
    Si4203   Si       0.64062    0.84675    0.42897    1.000
    N4204    N        0.63738    0.80332    0.42898    1.000
    N4205    N        0.65364    0.86107    0.46607    1.000
    Si4206   Si       0.74370    0.83234    0.44531    1.000
    Si4207   Si       0.58771    0.89117    0.44369    1.000
    Si4208   Si       0.53129    0.93768    0.44807    1.000
    N4209    N        0.55910    0.97089    0.44034    1.000
    N4210    N        0.54769    0.90350    0.42508    1.000
    Si4211   Si       0.59577    0.95843    0.42214    1.000
    N4212    N        0.61034    0.92622    0.44993    1.000
    N4213    N        0.49301    0.95184    0.43526    1.000
    N4214    N        0.69447    0.00489    0.42728    1.000
    Si4215   Si       0.70789    0.97482    0.45538    1.000
    N4216    N        0.62190    0.99278    0.42121    1.000
    N4217    N        0.73402    0.94269    0.43357    1.000
    Si4218   Si       0.56232    0.82396    0.49156    1.000
    N4219    N        0.53506    0.84789    0.51935    1.000
    N4220    N        0.58379    0.86908    0.48211    1.000
    N4221    N        0.58317    0.80929    0.52817    1.000
    Si4222   Si       0.62615    0.87383    0.49903    1.000
    N4223    N        0.63922    0.77741    0.50030    1.000
    Si4224   Si       0.72296    0.77830    0.48699    1.000
    N4225    N        0.70301    0.87581    0.51477    1.000
    Si4226   Si       0.69530    0.85747    0.47601    1.000
    N4227    N        0.71431    0.81828    0.47457    1.000
    Si4228   Si       0.55186    0.88587    0.50642    1.000
    N4229    N        0.53108    0.91796    0.48646    1.000
    N4230    N        0.61031    0.96446    0.51042    1.000
    Si4231   Si       0.58647    0.99776    0.52213    1.000
    N4232    N        0.67335    0.95423    0.47089    1.000
    N4233    N        0.73682    0.99582    0.48546    1.000
    N4234    N        0.64083    0.90936    0.51848    1.000
    Si4235   Si       0.63456    0.93956    0.48536    1.000
    N4236    N        0.52547    0.78350    0.55090    1.000
    Si4237   Si       0.55417    0.81566    0.56070    1.000
    Si4238   Si       0.50379    0.85485    0.54791    1.000
    N4239    N        0.52813    0.84394    0.58148    1.000
    N4240    N        0.64039    0.78757    0.56972    1.000
    N4241    N        0.69173    0.83801    0.57125    1.000
    Si4242   Si       0.67419    0.86783    0.54723    1.000
    Si4243   Si       0.73335    0.82526    0.57476    1.000
    N4244    N        0.73300    0.78306    0.57646    1.000
    Si4245   Si       0.62538    0.80580    0.53279    1.000
    N4246    N        0.64232    0.84562    0.52862    1.000
    N4247    N        0.56180    0.97358    0.55394    1.000
    Si4248   Si       0.58956    0.94115    0.54441    1.000
    N4249    N        0.57254    0.90323    0.53974    1.000
    Si4250   Si       0.65461    0.93116    0.55470    1.000
    N4251    N        0.68659    0.95958    0.56079    1.000
    N4252    N        0.73840    0.90949    0.56393    1.000
    N4253    N        0.67101    0.89943    0.57840    1.000
    N4254    N        0.61935    0.94195    0.57585    1.000
    Si4255   Si       0.68841    0.00323    0.55591    1.000
    Si4256   Si       0.70618    0.92832    0.58658    1.000
    Si4257   Si       0.52500    0.83302    0.62519    1.000
    Si4258   Si       0.59993    0.82288    0.62664    1.000
    N4259    N        0.52136    0.79154    0.63205    1.000
    N4260    N        0.57985    0.80255    0.59316    1.000
    N4261    N        0.56446    0.84523    0.64109    1.000
    Si4262   Si       0.60952    0.76890    0.59298    1.000
    N4263    N        0.62278    0.77892    0.63490    1.000
    Si4264   Si       0.66279    0.81486    0.59454    1.000
    N4265    N        0.63281    0.84503    0.61083    1.000
    N4266    N        0.69158    0.79991    0.62536    1.000
    Si4267   Si       0.71231    0.83474    0.64175    1.000
    N4268    N        0.68803    0.87078    0.64105    1.000
    Si4269   Si       0.71841    0.76192    0.61257    1.000
    N4270    N        0.56790    0.94578    0.62288    1.000
    N4271    N        0.50946    0.98543    0.60249    1.000
    N4272    N        0.50243    0.92229    0.63099    1.000
    Si4273   Si       0.55076    0.97796    0.59632    1.000
    Si4274   Si       0.61179    0.94693    0.61886    1.000
    N4275    N        0.62422    0.98796    0.62668    1.000
    Si4276   Si       0.65423    0.88404    0.61683    1.000
    N4277    N        0.63517    0.91815    0.63995    1.000
    N4278    N        0.71676    0.93149    0.62813    1.000
    Si4279   Si       0.56080    0.85977    0.68085    1.000
    N4280    N        0.60146    0.85208    0.69374    1.000
    N4281    N        0.59214    0.78611    0.69399    1.000
    N4282    N        0.53446    0.82926    0.69863    1.000
    Si4283   Si       0.49326    0.83293    0.68801    1.000
    N4284    N        0.49458    0.85232    0.65003    1.000
    N4285    N        0.72836    0.82046    0.68035    1.000
    N4286    N        0.66143    0.80821    0.68809    1.000
    Si4287   Si       0.66724    0.77607    0.65600    1.000
    Si4288   Si       0.53849    0.92982    0.65250    1.000
    N4289    N        0.54734    0.90237    0.68809    1.000
    N4290    N        0.53497    0.96564    0.67708    1.000
    Si4291   Si       0.54737    0.00600    0.68371    1.000
    N4292    N        0.64349    0.97132    0.69384    1.000
    Si4293   Si       0.70932    0.90449    0.66062    1.000
    N4294    N        0.68767    0.91826    0.69378    1.000
    Si4295   Si       0.62943    0.00368    0.66791    1.000
    Si4296   Si       0.64456    0.92826    0.68296    1.000
    N4297    N        0.56698    0.87664    0.74435    1.000
    N4298    N        0.56107    0.80337    0.75251    1.000
    Si4299   Si       0.55290    0.79255    0.71229    1.000
    Si4300   Si       0.60916    0.87313    0.73360    1.000
    N4301    N        0.72944    0.77073    0.72096    1.000
    N4302    N        0.62992    0.83550    0.74633    1.000
    N4303    N        0.70712    0.84611    0.73632    1.000
    Si4304   Si       0.69792    0.80717    0.71707    1.000
    N4305    N        0.67956    0.78884    0.75347    1.000
    Si4306   Si       0.73675    0.85426    0.70554    1.000
    Si4307   Si       0.62229    0.81603    0.70734    1.000
    N4308    N        0.56782    0.94927    0.74068    1.000
    Si4309   Si       0.54441    0.91178    0.73141    1.000
    Si4310   Si       0.60876    0.93428    0.74694    1.000
    N4311    N        0.50494    0.91366    0.75112    1.000
    Si4312   Si       0.54933    0.98444    0.75674    1.000
    N4313    N        0.62218    0.91039    0.71345    1.000
    Si4314   Si       0.70598    0.92964    0.73248    1.000
    N4315    N        0.70449    0.97326    0.73620    1.000
    Si4316   Si       0.66164    0.98403    0.73272    1.000
    N4317    N        0.64023    0.96146    0.76268    1.000
    Si4318   Si       0.57824    0.77458    0.78123    1.000
    N4319    N        0.57746    0.84724    0.80287    1.000
    N4320    N        0.50984    0.84369    0.77348    1.000
    Si4321   Si       0.55176    0.84194    0.76630    1.000
    N4322    N        0.55705    0.78407    0.81867    1.000
    N4323    N        0.62079    0.78394    0.79046    1.000
    N4324    N        0.67289    0.83832    0.80126    1.000
    Si4325   Si       0.64956    0.80998    0.77478    1.000
    Si4326   Si       0.69696    0.86671    0.77509    1.000
    N4327    N        0.73866    0.87028    0.78977    1.000
    Si4328   Si       0.59933    0.88491    0.81045    1.000
    N4329    N        0.51894    0.96839    0.79239    1.000
    N4330    N        0.56632    0.91214    0.81487    1.000
    N4331    N        0.68663    0.90760    0.76429    1.000
    Si4332   Si       0.65379    0.92697    0.78494    1.000
    N4333    N        0.61866    0.90163    0.77666    1.000
    N4334    N        0.72423    0.98517    0.81110    1.000
    N4335    N        0.53871    0.83692    0.85759    1.000
    Si4336   Si       0.56931    0.82041    0.83597    1.000
    N4337    N        0.60875    0.81272    0.85496    1.000
    Si4338   Si       0.50023    0.84015    0.87558    1.000
    Si4339   Si       0.62616    0.77816    0.83604    1.000
    N4340    N        0.66846    0.77813    0.83918    1.000
    Si4341   Si       0.68673    0.81814    0.83729    1.000
    N4342    N        0.67094    0.83597    0.87402    1.000
    Si4343   Si       0.62632    0.84618    0.87632    1.000
    N4344    N        0.73101    0.86894    0.86569    1.000
    N4345    N        0.72991    0.81429    0.82733    1.000
    N4346    N        0.62367    0.88011    0.84847    1.000
    N4347    N        0.55485    0.97299    0.84444    1.000
    N4348    N        0.50699    0.91967    0.84867    1.000
    Si4349   Si       0.53613    0.93999    0.82378    1.000
    Si4350   Si       0.53686    0.00080    0.81608    1.000
    N4351    N        0.68028    0.98861    0.86596    1.000
    N4352    N        0.72788    0.93531    0.84804    1.000
    N4353    N        0.66282    0.93407    0.82739    1.000
    Si4354   Si       0.69549    0.96068    0.83556    1.000
    Si4355   Si       0.64763    0.91499    0.86275    1.000
    N4356    N        0.50179    0.87421    0.90123    1.000
    Si4357   Si       0.52267    0.79148    0.92722    1.000
    N4358    N        0.60474    0.86165    0.91007    1.000
    N4359    N        0.49424    0.80140    0.89405    1.000
    N4360    N        0.54356    0.82986    0.93518    1.000
    Si4361   Si       0.69763    0.86388    0.89254    1.000
    N4362    N        0.72431    0.84804    0.92480    1.000
    N4363    N        0.56468    0.98345    0.90974    1.000
    Si4364   Si       0.59851    0.90556    0.90820    1.000
    Si4365   Si       0.51734    0.91370    0.88970    1.000
    N4366    N        0.50041    0.94594    0.91458    1.000
    N4367    N        0.55852    0.91769    0.89174    1.000
    Si4368   Si       0.52140    0.98108    0.92943    1.000
    Si4369   Si       0.57683    0.95666    0.87782    1.000
    N4370    N        0.73165    0.92689    0.91745    1.000
    N4371    N        0.61548    0.93843    0.88210    1.000
    N4372    N        0.66560    0.95890    0.93473    1.000
    N4373    N        0.72352    0.99287    0.92371    1.000
    Si4374   Si       0.68942    0.92177    0.92979    1.000
    N4375    N        0.67331    0.89889    0.89771    1.000
    Si4376   Si       0.68349    0.99274    0.90959    1.000
    N4377    N        0.59681    0.85777    0.98002    1.000
    N4378    N        0.60899    0.80161    0.94454    1.000
    Si4379   Si       0.58538    0.76459    0.95850    1.000
    Si4380   Si       0.51586    0.86343    0.94080    1.000
    N4381    N        0.56029    0.77138    0.99437    1.000
    Si4382   Si       0.51815    0.75935    0.98757    1.000
    Si4383   Si       0.58634    0.83875    0.94243    1.000
    Si4384   Si       0.72908    0.87508    0.96401    1.000
    N4385    N        0.68425    0.78056    0.95424    1.000
    Si4386   Si       0.71886    0.80978    0.95301    1.000
    N4387    N        0.72128    0.83888    0.98819    1.000
    Si4388   Si       0.64438    0.78510    0.96652    1.000
    Si4389   Si       0.57909    0.00065    0.94602    1.000
    N4390    N        0.53641    0.89365    0.96319    1.000
    N4391    N        0.54046    0.98877    0.96790    1.000
    Si4392   Si       0.57758    0.89693    0.97851    1.000
    N4393    N        0.60507    0.98330    0.97459    1.000
    N4394    N        0.60392    0.91882    0.95024    1.000
    N4395    N        0.69272    0.89982    0.96679    1.000
    Si4396   Si       0.63249    0.94983    0.96362    1.000
    N4397    N        0.81173    0.05947    0.02010    1.000
    Si4398   Si       0.85291    0.06371    0.03556    1.000
    Si4399   Si       0.77838    0.04989    0.04638    1.000
    N4400    N        0.75677    0.02076    0.02338    1.000
    N4401    N        0.85842    0.10600    0.04765    1.000
    Si4402   Si       0.96624    0.07062    0.05226    1.000
    N4403    N        0.96638    0.10408    0.02230    1.000
    N4404    N        0.93099    0.04277    0.04768    1.000
    Si4405   Si       0.91756    0.03144    0.00585    1.000
    Si4406   Si       0.88853    0.13568    0.02987    1.000
    N4407    N        0.87913    0.05234    0.00300    1.000
    N4408    N        0.75848    0.20225    0.03559    1.000
    Si4409   Si       0.83056    0.17133    0.00807    1.000
    N4410    N        0.82338    0.21652    0.00995    1.000
    N4411    N        0.81367    0.15903    0.04907    1.000
    Si4412   Si       0.85287    0.24508    0.99897    1.000
    N4413    N        0.87451    0.17365    0.01509    1.000
    Si4414   Si       0.95287    0.25402    0.02720    1.000
    N4415    N        0.93332    0.21578    0.02439    1.000
    Si4416   Si       0.76046    0.10853    0.08865    1.000
    N4417    N        0.80371    0.10840    0.09639    1.000
    N4418    N        0.79176    0.02665    0.08031    1.000
    Si4419   Si       0.83337    0.13095    0.07411    1.000
    N4420    N        0.86136    0.03339    0.06553    1.000
    N4421    N        0.75393    0.08354    0.05418    1.000
    N4422    N        0.96952    0.08402    0.09668    1.000
    Si4423   Si       0.90412    0.02591    0.07750    1.000
    N4424    N        0.91039    0.05207    0.11045    1.000
    N4425    N        0.74740    0.14917    0.07962    1.000
    Si4426   Si       0.77826    0.17786    0.06699    1.000
    N4427    N        0.78756    0.20342    0.10023    1.000
    N4428    N        0.85685    0.14824    0.10652    1.000
    N4429    N        0.91313    0.15197    0.06335    1.000
    Si4430   Si       0.89980    0.14536    0.10278    1.000
    N4431    N        0.89935    0.22547    0.08043    1.000
    Si4432   Si       0.92592    0.19585    0.06237    1.000
    N4433    N        0.96510    0.19490    0.08309    1.000
    Si4434   Si       0.81592    0.10623    0.13697    1.000
    N4435    N        0.85313    0.07847    0.14196    1.000
    Si4436   Si       0.82711    0.04743    0.15837    1.000
    N4437    N        0.79204    0.07643    0.16083    1.000
    Si4438   Si       0.74613    0.07247    0.15552    1.000
    N4439    N        0.74198    0.03222    0.13863    1.000
    N4440    N        0.91009    0.11725    0.13516    1.000
    Si4441   Si       0.89547    0.07733    0.14183    1.000
    N4442    N        0.93081    0.06393    0.16825    1.000
    Si4443   Si       0.95194    0.05203    0.12677    1.000
    N4444    N        0.74842    0.17865    0.15534    1.000
    Si4445   Si       0.76964    0.21279    0.13705    1.000
    Si4446   Si       0.84656    0.16810    0.14463    1.000
    N4447    N        0.80755    0.14650    0.15424    1.000
    N4448    N        0.85230    0.21216    0.13628    1.000
    Si4449   Si       0.82831    0.24504    0.15139    1.000
    N4450    N        0.79539    0.22515    0.17173    1.000
    N4451    N        0.74220    0.25105    0.13147    1.000
    Si4452   Si       0.89352    0.21722    0.12296    1.000
    N4453    N        0.91268    0.25241    0.14433    1.000
    N4454    N        0.97748    0.21764    0.14581    1.000
    Si4455   Si       0.96095    0.18231    0.12293    1.000
    N4456    N        0.91749    0.18032    0.12803    1.000
    N4457    N        0.98243    0.14610    0.13235    1.000
    Si4458   Si       0.91280    0.15073    0.16352    1.000
    Si4459   Si       0.95600    0.25501    0.15307    1.000
    N4460    N        0.83249    0.09551    0.21114    1.000
    N4461    N        0.83028    0.03198    0.20038    1.000
    Si4462   Si       0.79049    0.09146    0.20603    1.000
    N4463    N        0.75969    0.12331    0.19593    1.000
    Si4464   Si       0.84673    0.05918    0.22937    1.000
    Si4465   Si       0.86265    0.12849    0.20885    1.000
    Si4466   Si       0.92150    0.06774    0.20982    1.000
    N4467    N        0.90314    0.10808    0.21437    1.000
    Si4468   Si       0.97881    0.02249    0.23142    1.000
    N4469    N        0.88897    0.04382    0.22670    1.000
    N4470    N        0.74005    0.23724    0.20370    1.000
    Si4471   Si       0.77701    0.16009    0.18120    1.000
    Si4472   Si       0.78019    0.22288    0.21118    1.000
    N4473    N        0.78355    0.17886    0.22076    1.000
    N4474    N        0.87299    0.15454    0.17550    1.000
    N4475    N        0.94517    0.15117    0.19100    1.000
    Si4476   Si       0.98557    0.14226    0.17653    1.000
    N4477    N        0.83205    0.06128    0.27080    1.000
    Si4478   Si       0.75030    0.11632    0.27835    1.000
    N4479    N        0.78890    0.11693    0.25835    1.000
    Si4480   Si       0.78870    0.06959    0.27208    1.000
    Si4481   Si       0.74357    0.03192    0.24531    1.000
    N4482    N        0.76729    0.02948    0.28304    1.000
    N4483    N        0.77218    0.06217    0.23182    1.000
    N4484    N        0.92670    0.11081    0.27416    1.000
    Si4485   Si       0.95212    0.07592    0.27850    1.000
    N4486    N        0.97932    0.13385    0.23938    1.000
    N4487    N        0.96096    0.06481    0.23647    1.000
    N4488    N        0.80146    0.24801    0.24139    1.000
    Si4489   Si       0.81596    0.22770    0.27819    1.000
    Si4490   Si       0.80665    0.15668    0.25004    1.000
    N4491    N        0.84915    0.15377    0.24044    1.000
    N4492    N        0.80509    0.18390    0.28478    1.000
    N4493    N        0.86005    0.22236    0.27228    1.000
    N4494    N        0.74641    0.15490    0.29999    1.000
    N4495    N        0.91956    0.24472    0.24985    1.000
    Si4496   Si       0.93405    0.13630    0.23386    1.000
    Si4497   Si       0.94058    0.20847    0.26279    1.000
    N4498    N        0.98317    0.20425    0.25345    1.000
    N4499    N        0.91526    0.17377    0.25365    1.000
    Si4500   Si       0.87334    0.17674    0.26810    1.000
    Si4501   Si       0.88452    0.25889    0.27198    1.000
    Si4502   Si       0.84951    0.05736    0.31035    1.000
    N4503    N        0.76301    0.08526    0.30781    1.000
    N4504    N        0.81788    0.06755    0.33628    1.000
    Si4505   Si       0.78703    0.09864    0.34382    1.000
    Si4506   Si       0.74860    0.04509    0.32000    1.000
    N4507    N        0.87102    0.02109    0.32553    1.000
    Si4508   Si       0.90667    0.04620    0.33160    1.000
    N4509    N        0.88508    0.08196    0.31994    1.000
    Si4510   Si       0.90315    0.11864    0.30854    1.000
    Si4511   Si       0.97559    0.12143    0.32589    1.000
    N4512    N        0.93725    0.04270    0.30165    1.000
    N4513    N        0.93416    0.12669    0.33886    1.000
    N4514    N        0.98808    0.09000    0.29796    1.000
    N4515    N        0.80962    0.13715    0.33657    1.000
    Si4516   Si       0.78429    0.16541    0.31837    1.000
    N4517    N        0.80634    0.24429    0.31578    1.000
    Si4518   Si       0.85015    0.15819    0.34079    1.000
    N4519    N        0.77396    0.19367    0.35138    1.000
    N4520    N        0.87277    0.15167    0.30431    1.000
    Si4521   Si       0.98060    0.19855    0.32094    1.000
    Si4522   Si       0.92412    0.24277    0.33380    1.000
    N4523    N        0.94359    0.21443    0.30587    1.000
    N4524    N        0.76377    0.09976    0.37914    1.000
    Si4525   Si       0.75555    0.05896    0.39485    1.000
    N4526    N        0.75405    0.02972    0.35984    1.000
    N4527    N        0.79732    0.04232    0.40329    1.000
    N4528    N        0.86761    0.04374    0.40620    1.000
    N4529    N        0.92400    0.04187    0.37152    1.000
    Si4530   Si       0.96487    0.02699    0.37465    1.000
    N4531    N        0.91172    0.10116    0.40557    1.000
    Si4532   Si       0.91355    0.13301    0.37659    1.000
    Si4533   Si       0.90843    0.05808    0.40871    1.000
    N4534    N        0.80291    0.24477    0.38912    1.000
    N4535    N        0.84781    0.20176    0.35110    1.000
    Si4536   Si       0.80813    0.21984    0.35242    1.000
    N4537    N        0.87114    0.14512    0.37540    1.000
    N4538    N        0.91410    0.21448    0.36567    1.000
    Si4539   Si       0.87390    0.21968    0.38190    1.000
    Si4540   Si       0.94538    0.19843    0.39044    1.000
    N4541    N        0.93730    0.15753    0.40476    1.000
    N4542    N        0.98022    0.19109    0.36506    1.000
    N4543    N        0.83056    0.10653    0.42420    1.000
    Si4544   Si       0.83171    0.06171    0.42056    1.000
    N4545    N        0.83036    0.05760    0.46435    1.000
    Si4546   Si       0.74536    0.09114    0.46214    1.000
    N4547    N        0.74081    0.05446    0.43585    1.000
    N4548    N        0.92063    0.05058    0.45227    1.000
    Si4549   Si       0.94101    0.12297    0.43019    1.000
    N4550    N        0.98198    0.11063    0.42476    1.000
    N4551    N        0.81533    0.22805    0.45745    1.000
    Si4552   Si       0.79699    0.21187    0.42059    1.000
    Si4553   Si       0.85419    0.20079    0.45233    1.000
    Si4554   Si       0.84959    0.14508    0.41557    1.000
    N4555    N        0.75666    0.19845    0.41599    1.000
    N4556    N        0.82656    0.18047    0.41442    1.000
    N4557    N        0.97567    0.16334    0.46585    1.000
    Si4558   Si       0.91537    0.24027    0.44369    1.000
    N4559    N        0.87193    0.15798    0.45196    1.000
    N4560    N        0.88240    0.22067    0.42547    1.000
    N4561    N        0.95136    0.22445    0.42385    1.000
    Si4562   Si       0.96946    0.20945    0.46370    1.000
    N4563    N        0.85594    0.10836    0.49657    1.000
    Si4564   Si       0.83935    0.01808    0.47876    1.000
    N4565    N        0.78156    0.11209    0.47474    1.000
    Si4566   Si       0.82440    0.10087    0.47039    1.000
    Si4567   Si       0.97834    0.02426    0.49137    1.000
    N4568    N        0.96636    0.06534    0.50037    1.000
    Si4569   Si       0.92768    0.07543    0.48829    1.000
    N4570    N        0.90885    0.07918    0.52633    1.000
    N4571    N        0.92716    0.11733    0.47350    1.000
    N4572    N        0.87931    0.01222    0.49402    1.000
    Si4573   Si       0.80792    0.25963    0.48505    1.000
    Si4574   Si       0.82290    0.20461    0.51809    1.000
    N4575    N        0.75486    0.17775    0.47911    1.000
    N4576    N        0.79713    0.23924    0.52143    1.000
    Si4577   Si       0.77132    0.14408    0.50204    1.000
    N4578    N        0.80802    0.16295    0.51650    1.000
    N4579    N        0.86135    0.20457    0.49637    1.000
    Si4580   Si       0.90240    0.20313    0.51198    1.000
    Si4581   Si       0.88760    0.13758    0.48715    1.000
    N4582    N        0.98379    0.21744    0.50638    1.000
    N4583    N        0.92728    0.21763    0.47887    1.000
    N4584    N        0.91492    0.16110    0.51303    1.000
    Si4585   Si       0.95166    0.14718    0.49774    1.000
    Si4586   Si       0.82458    0.02312    0.54468    1.000
    N4587    N        0.82982    0.06603    0.54918    1.000
    Si4588   Si       0.75364    0.12682    0.57375    1.000
    N4589    N        0.79446    0.02235    0.57760    1.000
    N4590    N        0.76211    0.08451    0.57434    1.000
    N4591    N        0.85640    0.12944    0.56072    1.000
    Si4592   Si       0.80177    0.06739    0.58325    1.000
    Si4593   Si       0.86604    0.09113    0.54165    1.000
    N4594    N        0.74159    0.13292    0.53178    1.000
    Si4595   Si       0.92317    0.06682    0.56433    1.000
    N4596    N        0.92152    0.02127    0.55897    1.000
    N4597    N        0.95824    0.09184    0.57878    1.000
    Si4598   Si       0.98384    0.12577    0.57097    1.000
    N4599    N        0.98559    0.03181    0.57780    1.000
    N4600    N        0.98069    0.12914    0.52743    1.000
    N4601    N        0.88830    0.08184    0.58330    1.000
    N4602    N        0.75509    0.23186    0.57455    1.000
    N4603    N        0.83720    0.19760    0.56047    1.000
    Si4604   Si       0.82452    0.15584    0.55475    1.000
    N4605    N        0.79192    0.14682    0.58283    1.000
    N4606    N        0.98587    0.22080    0.57704    1.000
    Si4607   Si       0.96242    0.23276    0.54094    1.000
    N4608    N        0.91858    0.22635    0.54684    1.000
    N4609    N        0.81040    0.07356    0.62449    1.000
    Si4610   Si       0.87554    0.12155    0.59845    1.000
    N4611    N        0.94204    0.04159    0.62050    1.000
    Si4612   Si       0.97677    0.06618    0.60878    1.000
    Si4613   Si       0.95149    0.13156    0.64013    1.000
    N4614    N        0.84965    0.14341    0.62417    1.000
    Si4615   Si       0.80879    0.16056    0.62099    1.000
    N4616    N        0.81301    0.20386    0.62603    1.000
    Si4617   Si       0.83662    0.22482    0.59471    1.000
    Si4618   Si       0.74828    0.23315    0.62036    1.000
    N4619    N        0.73887    0.19189    0.63524    1.000
    Si4620   Si       0.91172    0.23987    0.58742    1.000
    N4621    N        0.92782    0.21136    0.61757    1.000
    N4622    N        0.91004    0.13704    0.62434    1.000
    N4623    N        0.87441    0.24287    0.61178    1.000
    Si4624   Si       0.96765    0.19910    0.61145    1.000
    N4625    N        0.97515    0.15474    0.60917    1.000
    N4626    N        0.75352    0.08186    0.66497    1.000
    Si4627   Si       0.79471    0.09741    0.65751    1.000
    N4628    N        0.81853    0.09354    0.69497    1.000
    N4629    N        0.77202    0.01538    0.65178    1.000
    Si4630   Si       0.86050    0.08429    0.68568    1.000
    Si4631   Si       0.85730    0.01197    0.65497    1.000
    N4632    N        0.87451    0.05330    0.65527    1.000
    Si4633   Si       0.91612    0.03666    0.65415    1.000
    N4634    N        0.93782    0.05336    0.69052    1.000
    Si4635   Si       0.97817    0.06926    0.68238    1.000
    N4636    N        0.88118    0.12275    0.68415    1.000
    N4637    N        0.97252    0.09415    0.64672    1.000
    N4638    N        0.78130    0.19604    0.68989    1.000
    Si4639   Si       0.80061    0.22529    0.66290    1.000
    Si4640   Si       0.75932    0.16801    0.66645    1.000
    N4641    N        0.83120    0.24722    0.68499    1.000
    N4642    N        0.78733    0.13942    0.65109    1.000
    N4643    N        0.76924    0.25421    0.65280    1.000
    Si4644   Si       0.86017    0.21901    0.70095    1.000
    Si4645   Si       0.95318    0.25848    0.68443    1.000
    N4646    N        0.95163    0.21640    0.69843    1.000
    Si4647   Si       0.97552    0.18085    0.68376    1.000
    Si4648   Si       0.88053    0.15382    0.65333    1.000
    N4649    N        0.94487    0.14962    0.67853    1.000
    N4650    N        0.87834    0.19641    0.66797    1.000
    Si4651   Si       0.89821    0.22868    0.64523    1.000
    Si4652   Si       0.79414    0.10306    0.73089    1.000
    N4653    N        0.75027    0.09502    0.73275    1.000
    N4654    N        0.82890    0.01704    0.75742    1.000
    Si4655   Si       0.85409    0.01475    0.72332    1.000
    N4656    N        0.87279    0.05424    0.71805    1.000
    Si4657   Si       0.91376    0.05984    0.72963    1.000
    N4658    N        0.91801    0.10286    0.73809    1.000
    N4659    N        0.92704    0.03169    0.75915    1.000
    N4660    N        0.79669    0.14598    0.74414    1.000
    Si4661   Si       0.79451    0.18768    0.73197    1.000
    N4662    N        0.83766    0.19323    0.72860    1.000
    N4663    N        0.77318    0.21527    0.75753    1.000
    N4664    N        0.89013    0.23893    0.73029    1.000
    Si4665   Si       0.92498    0.21137    0.73153    1.000
    Si4666   Si       0.91678    0.13740    0.70925    1.000
    Si4667   Si       0.86592    0.17673    0.75649    1.000
    N4668    N        0.90439    0.17197    0.73276    1.000
    Si4669   Si       0.98631    0.17210    0.75423    1.000
    Si4670   Si       0.83877    0.05370    0.77991    1.000
    N4671    N        0.83299    0.03794    0.82053    1.000
    Si4672   Si       0.82107    0.12691    0.78273    1.000
    N4673    N        0.81402    0.08673    0.76523    1.000
    N4674    N        0.87871    0.07158    0.78758    1.000
    Si4675   Si       0.89521    0.10908    0.77459    1.000
    N4676    N        0.91610    0.12355    0.81097    1.000
    Si4677   Si       0.90564    0.04063    0.80070    1.000
    N4678    N        0.98520    0.06673    0.78268    1.000
    Si4679   Si       0.96976    0.02979    0.76537    1.000
    N4680    N        0.97586    0.13495    0.77439    1.000
    Si4681   Si       0.95843    0.13564    0.81353    1.000
    N4682    N        0.86149    0.13706    0.77076    1.000
    N4683    N        0.79356    0.14923    0.81127    1.000
    Si4684   Si       0.78916    0.25193    0.77646    1.000
    Si4685   Si       0.95202    0.20928    0.80648    1.000
    N4686    N        0.95422    0.19911    0.76462    1.000
    N4687    N        0.97820    0.24300    0.80500    1.000
    Si4688   Si       0.86783    0.24942    0.76773    1.000
    N4689    N        0.86621    0.20752    0.78579    1.000
    Si4690   Si       0.75870    0.04711    0.85765    1.000
    N4691    N        0.77801    0.07708    0.83286    1.000
    Si4692   Si       0.82129    0.07400    0.84276    1.000
    N4693    N        0.83982    0.11092    0.82726    1.000
    N4694    N        0.76748    0.13045    0.86413    1.000
    Si4695   Si       0.76157    0.11616    0.82429    1.000
    Si4696   Si       0.93296    0.02537    0.86832    1.000
    Si4697   Si       0.88140    0.12407    0.83877    1.000
    N4698    N        0.97585    0.10816    0.84311    1.000
    N4699    N        0.93592    0.04819    0.83059    1.000
    N4700    N        0.89508    0.10044    0.87535    1.000
    Si4701   Si       0.97319    0.06842    0.82476    1.000
    N4702    N        0.80280    0.18566    0.86312    1.000
    Si4703   Si       0.78415    0.19252    0.82473    1.000
    Si4704   Si       0.81072    0.14145    0.85533    1.000
    N4705    N        0.86073    0.23646    0.85162    1.000
    N4706    N        0.73941    0.19160    0.82042    1.000
    N4707    N        0.78481    0.23843    0.81789    1.000
    N4708    N        0.91601    0.22107    0.82580    1.000
    Si4709   Si       0.87650    0.20297    0.82709    1.000
    N4710    N        0.87594    0.16625    0.85070    1.000
    N4711    N        0.96334    0.17481    0.83111    1.000
    Si4712   Si       0.97905    0.18158    0.87116    1.000
    Si4713   Si       0.80939    0.03985    0.91442    1.000
    N4714    N        0.76715    0.04542    0.89979    1.000
    Si4715   Si       0.85873    0.09458    0.89900    1.000
    N4716    N        0.83649    0.13122    0.88914    1.000
    N4717    N        0.83131    0.06544    0.88370    1.000
    N4718    N        0.93618    0.05261    0.90120    1.000
    Si4719   Si       0.91960    0.09104    0.91079    1.000
    Si4720   Si       0.98143    0.12957    0.92609    1.000
    N4721    N        0.88178    0.08609    0.93613    1.000
    N4722    N        0.77774    0.21507    0.92429    1.000
    Si4723   Si       0.80466    0.18400    0.90720    1.000
    N4724    N        0.78544    0.14961    0.92579    1.000
    N4725    N        0.84595    0.19740    0.91469    1.000
    Si4726   Si       0.74932    0.14316    0.89990    1.000
    Si4727   Si       0.86619    0.16475    0.89407    1.000
    Si4728   Si       0.78092    0.25845    0.91595    1.000
    N4729    N        0.95757    0.15758    0.90253    1.000
    N4730    N        0.97614    0.22325    0.88226    1.000
    Si4731   Si       0.92597    0.17267    0.92785    1.000
    N4732    N        0.91768    0.21361    0.91599    1.000
    N4733    N        0.89065    0.14877    0.92711    1.000
    Si4734   Si       0.95591    0.23476    0.91800    1.000
    Si4735   Si       0.87778    0.22708    0.92667    1.000
    N4736    N        0.77582    0.09692    0.97089    1.000
    Si4737   Si       0.79561    0.05864    0.97982    1.000
    N4738    N        0.77587    0.02546    0.96038    1.000
    N4739    N        0.82902    0.05767    0.94875    1.000
    N4740    N        0.83856    0.13282    0.97898    1.000
    Si4741   Si       0.79624    0.13345    0.96388    1.000
    Si4742   Si       0.87180    0.05126    0.95948    1.000
    N4743    N        0.94208    0.05678    0.98099    1.000
    Si4744   Si       0.94344    0.10141    0.98485    1.000
    Si4745   Si       0.87797    0.12439    0.96069    1.000
    N4746    N        0.90506    0.11785    0.99445    1.000
    N4747    N        0.94841    0.10472    0.94012    1.000
    Si4748   Si       0.95428    0.04165    0.94034    1.000
    N4749    N        0.76336    0.24653    0.98410    1.000
    N4750    N        0.78813    0.16779    0.98742    1.000
    Si4751   Si       0.78074    0.20911    0.99924    1.000
    Si4752   Si       0.90373    0.19828    0.99553    1.000
    N4753    N        0.88068    0.22781    0.97062    1.000
    Si4754   Si       0.97437    0.18800    0.97783    1.000
    N4755    N        0.93160    0.17744    0.97074    1.000
    N4756    N        0.98513    0.21953    0.94893    1.000
    Si4757   Si       0.82931    0.30345    0.03482    1.000
    N4758    N        0.78791    0.29909    0.01899    1.000
    Si4759   Si       0.75079    0.31230    0.04227    1.000
    N4760    N        0.84752    0.33441    0.01005    1.000
    N4761    N        0.86300    0.27083    0.03322    1.000
    N4762    N        0.91803    0.35457    0.01648    1.000
    N4763    N        0.98175    0.33282    0.02989    1.000
    Si4764   Si       0.91414    0.37519    0.05463    1.000
    N4765    N        0.93238    0.28179    0.05637    1.000
    Si4766   Si       0.95858    0.35428    0.00013    1.000
    N4767    N        0.82616    0.39938    0.01897    1.000
    N4768    N        0.81383    0.47853    0.02004    1.000
    Si4769   Si       0.84268    0.48140    0.05292    1.000
    Si4770   Si       0.81957    0.43804    0.00302    1.000
    N4771    N        0.74691    0.47081    0.02701    1.000
    Si4772   Si       0.83770    0.39785    0.06072    1.000
    N4773    N        0.83513    0.44138    0.07097    1.000
    Si4774   Si       0.74376    0.43569    0.99888    1.000
    Si4775   Si       0.96147    0.42467    0.02418    1.000
    N4776    N        0.88034    0.48250    0.03274    1.000
    N4777    N        0.95906    0.50598    0.04820    1.000
    Si4778   Si       0.92001    0.48295    0.04722    1.000
    N4779    N        0.93407    0.45615    0.01177    1.000
    N4780    N        0.82166    0.31881    0.07383    1.000
    Si4781   Si       0.79102    0.34545    0.09090    1.000
    N4782    N        0.74644    0.28167    0.07403    1.000
    N4783    N        0.75691    0.35027    0.06550    1.000
    Si4784   Si       0.83846    0.30323    0.10957    1.000
    N4785    N        0.93045    0.34470    0.08424    1.000
    N4786    N        0.87835    0.28830    0.10206    1.000
    Si4787   Si       0.89144    0.26470    0.06656    1.000
    Si4788   Si       0.95915    0.31659    0.06344    1.000
    N4789    N        0.87637    0.38445    0.07247    1.000
    N4790    N        0.80928    0.38713    0.09306    1.000
    Si4791   Si       0.75101    0.46578    0.06868    1.000
    N4792    N        0.78593    0.47626    0.09211    1.000
    Si4793   Si       0.79758    0.43323    0.09518    1.000
    N4794    N        0.75655    0.42320    0.07622    1.000
    Si4795   Si       0.98830    0.47636    0.06243    1.000
    Si4796   Si       0.94156    0.42945    0.09458    1.000
    N4797    N        0.91705    0.46781    0.08834    1.000
    N4798    N        0.98115    0.44727    0.09388    1.000
    N4799    N        0.94360    0.40567    0.05855    1.000
    Si4800   Si       0.76110    0.35370    0.15153    1.000
    N4801    N        0.83628    0.33836    0.13487    1.000
    N4802    N        0.77272    0.32376    0.12375    1.000
    N4803    N        0.81160    0.27102    0.12144    1.000
    N4804    N        0.79386    0.37871    0.16490    1.000
    Si4805   Si       0.77083    0.28098    0.11004    1.000
    Si4806   Si       0.86860    0.34725    0.16260    1.000
    Si4807   Si       0.91079    0.29367    0.12919    1.000
    N4808    N        0.97167    0.35910    0.14261    1.000
    N4809    N        0.90507    0.33482    0.14479    1.000
    N4810    N        0.95601    0.29137    0.12970    1.000
    Si4811   Si       0.93174    0.36348    0.12467    1.000
    Si4812   Si       0.98842    0.32092    0.12830    1.000
    Si4813   Si       0.82530    0.38707    0.13605    1.000
    N4814    N        0.81409    0.43070    0.13763    1.000
    Si4815   Si       0.83616    0.46285    0.15664    1.000
    N4816    N        0.83255    0.50273    0.13978    1.000
    N4817    N        0.86424    0.39033    0.15841    1.000
    Si4818   Si       0.90723    0.48397    0.12972    1.000
    N4819    N        0.92327    0.40680    0.12735    1.000
    N4820    N        0.87842    0.45889    0.15036    1.000
    Si4821   Si       0.89531    0.42077    0.15845    1.000
    N4822    N        0.94471    0.48413    0.15446    1.000
    N4823    N        0.98676    0.42824    0.16334    1.000
    Si4824   Si       0.84410    0.29820    0.21250    1.000
    Si4825   Si       0.78154    0.35486    0.21729    1.000
    N4826    N        0.80575    0.31616    0.22160    1.000
    N4827    N        0.74803    0.34002    0.19108    1.000
    N4828    N        0.84625    0.26945    0.18229    1.000
    N4829    N        0.86882    0.33152    0.20194    1.000
    N4830    N        0.95845    0.37335    0.20852    1.000
    N4831    N        0.96094    0.26052    0.19565    1.000
    Si4832   Si       0.98430    0.38580    0.17469    1.000
    Si4833   Si       0.80080    0.48855    0.22240    1.000
    N4834    N        0.81534    0.45719    0.19595    1.000
    Si4835   Si       0.79104    0.41872    0.18655    1.000
    N4836    N        0.79746    0.39663    0.22500    1.000
    N4837    N        0.74958    0.42768    0.18945    1.000
    N4838    N        0.92157    0.42735    0.19242    1.000
    Si4839   Si       0.92468    0.39875    0.22436    1.000
    N4840    N        0.96899    0.47275    0.22156    1.000
    Si4841   Si       0.95779    0.45272    0.18289    1.000
    N4842    N        0.76295    0.35297    0.25992    1.000
    Si4843   Si       0.78816    0.29026    0.25044    1.000
    N4844    N        0.83571    0.36059    0.27517    1.000
    Si4845   Si       0.84595    0.32095    0.28274    1.000
    N4846    N        0.74418    0.29039    0.25130    1.000
    N4847    N        0.80408    0.30602    0.28731    1.000
    Si4848   Si       0.79477    0.36141    0.28728    1.000
    N4849    N        0.86763    0.29570    0.25264    1.000
    N4850    N        0.97341    0.35986    0.27787    1.000
    N4851    N        0.89601    0.37350    0.24457    1.000
    Si4852   Si       0.96839    0.34272    0.23780    1.000
    N4853    N        0.93417    0.31469    0.23821    1.000
    Si4854   Si       0.94913    0.27175    0.23502    1.000
    Si4855   Si       0.89564    0.33065    0.23598    1.000
    N4856    N        0.98579    0.26997    0.25995    1.000
    Si4857   Si       0.75308    0.48126    0.28187    1.000
    N4858    N        0.85130    0.42945    0.26169    1.000
    N4859    N        0.78500    0.46322    0.25627    1.000
    Si4860   Si       0.80860    0.42570    0.25604    1.000
    Si4861   Si       0.94402    0.46049    0.25797    1.000
    N4862    N        0.94337    0.41836    0.25738    1.000
    Si4863   Si       0.86998    0.46604    0.27633    1.000
    Si4864   Si       0.97645    0.40387    0.27930    1.000
    Si4865   Si       0.86781    0.39013    0.27358    1.000
    N4866    N        0.90556    0.48144    0.25272    1.000
    Si4867   Si       0.79784    0.28624    0.32529    1.000
    N4868    N        0.78313    0.35605    0.33102    1.000
    N4869    N        0.75915    0.29559    0.33824    1.000
    N4870    N        0.87134    0.32698    0.31770    1.000
    Si4871   Si       0.88021    0.36027    0.34519    1.000
    N4872    N        0.89086    0.26568    0.31499    1.000
    Si4873   Si       0.87371    0.29495    0.34568    1.000
    N4874    N        0.95063    0.27382    0.34844    1.000
    N4875    N        0.95279    0.34719    0.34407    1.000
    Si4876   Si       0.98533    0.34637    0.31725    1.000
    Si4877   Si       0.86018    0.47684    0.34323    1.000
    Si4878   Si       0.77271    0.40133    0.32991    1.000
    N4879    N        0.76089    0.46191    0.32207    1.000
    N4880    N        0.84175    0.48549    0.30315    1.000
    N4881    N        0.79094    0.40597    0.29277    1.000
    N4882    N        0.95958    0.49791    0.35008    1.000
    N4883    N        0.96011    0.46873    0.29631    1.000
    Si4884   Si       0.92620    0.49071    0.31994    1.000
    N4885    N        0.89675    0.45867    0.31151    1.000
    Si4886   Si       0.89950    0.42363    0.34355    1.000
    Si4887   Si       0.97150    0.44977    0.33524    1.000
    N4888    N        0.88568    0.39226    0.31369    1.000
    N4889    N        0.97014    0.40698    0.32229    1.000
    Si4890   Si       0.80728    0.33992    0.36507    1.000
    N4891    N        0.84068    0.36925    0.36869    1.000
    Si4892   Si       0.83125    0.27758    0.39098    1.000
    N4893    N        0.82671    0.30240    0.35477    1.000
    N4894    N        0.78527    0.32688    0.40237    1.000
    N4895    N        0.89846    0.32478    0.37500    1.000
    Si4896   Si       0.94269    0.31171    0.36994    1.000
    Si4897   Si       0.89522    0.35770    0.40548    1.000
    N4898    N        0.90801    0.38544    0.37215    1.000
    N4899    N        0.96755    0.31382    0.40571    1.000
    Si4900   Si       0.95208    0.38810    0.35806    1.000
    N4901    N        0.86845    0.26272    0.37664    1.000
    N4902    N        0.75967    0.47132    0.39282    1.000
    Si4903   Si       0.83230    0.41077    0.38064    1.000
    N4904    N        0.82318    0.48880    0.36527    1.000
    N4905    N        0.79168    0.42398    0.36478    1.000
    Si4906   Si       0.78581    0.46694    0.35678    1.000
    N4907    N        0.86115    0.43623    0.36142    1.000
    Si4908   Si       0.77406    0.43027    0.41144    1.000
    N4909    N        0.89606    0.50121    0.35483    1.000
    Si4910   Si       0.94221    0.43558    0.40608    1.000
    Si4911   Si       0.93183    0.49156    0.38600    1.000
    N4912    N        0.93581    0.44110    0.35994    1.000
    N4913    N        0.97230    0.39779    0.39297    1.000
    N4914    N        0.96744    0.47543    0.40834    1.000
    N4915    N        0.84043    0.29898    0.42796    1.000
    Si4916   Si       0.80268    0.31756    0.44304    1.000
    N4917    N        0.77920    0.28612    0.46455    1.000
    N4918    N        0.80540    0.35579    0.46283    1.000
    N4919    N        0.86775    0.37713    0.43609    1.000
    Si4920   Si       0.87052    0.29694    0.45923    1.000
    Si4921   Si       0.94841    0.31030    0.44687    1.000
    N4922    N        0.92548    0.35077    0.43660    1.000
    N4923    N        0.91206    0.28296    0.45154    1.000
    Si4924   Si       0.96141    0.37940    0.43040    1.000
    Si4925   Si       0.83078    0.39051    0.45304    1.000
    N4926    N        0.81476    0.41472    0.42121    1.000
    N4927    N        0.78525    0.48986    0.45704    1.000
    N4928    N        0.76206    0.42909    0.45359    1.000
    N4929    N        0.84965    0.50256    0.43073    1.000
    Si4930   Si       0.76853    0.50602    0.42134    1.000
    Si4931   Si       0.82504    0.50535    0.46628    1.000
    N4932    N        0.90723    0.46353    0.41230    1.000
    N4933    N        0.94237    0.41654    0.44542    1.000
    Si4934   Si       0.88455    0.47915    0.44385    1.000
    N4935    N        0.87618    0.44395    0.46910    1.000
    N4936    N        0.75414    0.36709    0.51130    1.000
    N4937    N        0.84470    0.28094    0.49216    1.000
    Si4938   Si       0.79769    0.36926    0.50350    1.000
    Si4939   Si       0.85316    0.31426    0.51911    1.000
    N4940    N        0.81865    0.33993    0.53034    1.000
    N4941    N        0.87550    0.33193    0.48661    1.000
    N4942    N        0.94569    0.33654    0.49471    1.000
    Si4943   Si       0.97463    0.30668    0.51001    1.000
    Si4944   Si       0.90924    0.35539    0.47846    1.000
    Si4945   Si       0.98058    0.36477    0.49877    1.000
    N4946    N        0.98329    0.29128    0.46915    1.000
    Si4947   Si       0.76160    0.46291    0.48052    1.000
    N4948    N        0.82650    0.40390    0.49542    1.000
    N4949    N        0.83323    0.48144    0.50161    1.000
    Si4950   Si       0.84901    0.44073    0.50436    1.000
    N4951    N        0.77499    0.45420    0.52112    1.000
    N4952    N        0.93515    0.45443    0.50724    1.000
    N4953    N        0.90538    0.39149    0.50278    1.000
    Si4954   Si       0.92503    0.49666    0.50573    1.000
    Si4955   Si       0.91561    0.42601    0.47872    1.000
    N4956    N        0.98840    0.40500    0.51007    1.000
    N4957    N        0.90505    0.50848    0.46976    1.000
    N4958    N        0.76844    0.29835    0.55741    1.000
    Si4959   Si       0.79424    0.33196    0.56571    1.000
    N4960    N        0.77671    0.36991    0.57484    1.000
    Si4961   Si       0.78589    0.25740    0.55831    1.000
    N4962    N        0.82319    0.26314    0.57790    1.000
    N4963    N        0.87280    0.30602    0.55812    1.000
    N4964    N        0.87862    0.37434    0.57058    1.000
    N4965    N        0.96518    0.27739    0.54103    1.000
    N4966    N        0.93878    0.33826    0.57192    1.000
    Si4967   Si       0.95957    0.29847    0.57824    1.000
    Si4968   Si       0.89514    0.33692    0.58055    1.000
    Si4969   Si       0.80410    0.48621    0.53229    1.000
    Si4970   Si       0.75290    0.44526    0.55890    1.000
    N4971    N        0.82943    0.48474    0.56958    1.000
    N4972    N        0.98408    0.46338    0.55362    1.000
    Si4973   Si       0.96194    0.43092    0.53520    1.000
    Si4974   Si       0.87108    0.48049    0.56333    1.000
    N4975    N        0.94077    0.40883    0.56293    1.000
    N4976    N        0.87562    0.44142    0.54222    1.000
    Si4977   Si       0.89729    0.40515    0.54630    1.000
    N4978    N        0.82036    0.32452    0.60140    1.000
    Si4979   Si       0.80465    0.34257    0.63708    1.000
    Si4980   Si       0.85065    0.29268    0.59645    1.000
    N4981    N        0.88550    0.31856    0.62039    1.000
    N4982    N        0.93193    0.27491    0.60070    1.000
    N4983    N        0.93551    0.37998    0.62772    1.000
    Si4984   Si       0.91993    0.29786    0.63869    1.000
    Si4985   Si       0.95454    0.37547    0.59007    1.000
    N4986    N        0.80122    0.38579    0.63468    1.000
    N4987    N        0.83780    0.44789    0.63393    1.000
    Si4988   Si       0.77431    0.40353    0.60651    1.000
    Si4989   Si       0.81072    0.47219    0.60893    1.000
    N4990    N        0.79106    0.50651    0.63161    1.000
    N4991    N        0.78129    0.44249    0.59364    1.000
    N4992    N        0.73702    0.39954    0.62957    1.000
    Si4993   Si       0.87681    0.46592    0.64375    1.000
    N4994    N        0.98441    0.44496    0.62311    1.000
    N4995    N        0.88827    0.48458    0.60397    1.000
    N4996    N        0.83277    0.32185    0.66413    1.000
    Si4997   Si       0.76031    0.29373    0.66929    1.000
    Si4998   Si       0.82549    0.28976    0.69426    1.000
    N4999    N        0.76429    0.33179    0.64762    1.000
    Si5000   Si       0.74267    0.36935    0.65820    1.000
    N5001    N        0.86818    0.38033    0.65110    1.000
    Si5002   Si       0.87206    0.33754    0.65832    1.000
    Si5003   Si       0.95264    0.35847    0.66404    1.000
    N5004    N        0.90696    0.32667    0.68394    1.000
    N5005    N        0.91291    0.26275    0.66690    1.000
    N5006    N        0.95696    0.31973    0.64513    1.000
    N5007    N        0.75999    0.38729    0.69491    1.000
    N5008    N        0.76857    0.45226    0.67125    1.000
    N5009    N        0.82366    0.41494    0.69629    1.000
    Si5010   Si       0.75729    0.49060    0.65359    1.000
    Si5011   Si       0.78152    0.42473    0.69909    1.000
    Si5012   Si       0.83229    0.40863    0.65260    1.000
    N5013    N        0.87367    0.49098    0.67924    1.000
    Si5014   Si       0.95022    0.45768    0.64856    1.000
    Si5015   Si       0.90712    0.39785    0.65473    1.000
    N5016    N        0.96383    0.44962    0.68990    1.000
    N5017    N        0.92756    0.38712    0.68920    1.000
    N5018    N        0.94309    0.50139    0.64667    1.000
    N5019    N        0.91078    0.43996    0.64997    1.000
    Si5020   Si       0.76408    0.31774    0.74071    1.000
    N5021    N        0.85810    0.29750    0.72194    1.000
    N5022    N        0.77992    0.35576    0.75837    1.000
    N5023    N        0.78447    0.29811    0.70579    1.000
    Si5024   Si       0.86384    0.33250    0.74796    1.000
    N5025    N        0.87371    0.36703    0.72481    1.000
    Si5026   Si       0.91718    0.35541    0.71990    1.000
    N5027    N        0.94704    0.28396    0.71864    1.000
    N5028    N        0.95794    0.35616    0.73977    1.000
    Si5029   Si       0.96430    0.31283    0.74826    1.000
    N5030    N        0.90732    0.32240    0.75335    1.000
    Si5031   Si       0.90149    0.29181    0.71374    1.000
    Si5032   Si       0.75069    0.38445    0.73780    1.000
    Si5033   Si       0.85606    0.40498    0.72351    1.000
    N5034    N        0.83633    0.47760    0.74499    1.000
    N5035    N        0.76951    0.42791    0.74074    1.000
    N5036    N        0.77089    0.49626    0.74955    1.000
    N5037    N        0.83452    0.40484    0.76189    1.000
    Si5038   Si       0.81219    0.51042    0.75640    1.000
    N5039    N        0.98983    0.49053    0.74499    1.000
    N5040    N        0.88665    0.43590    0.71873    1.000
    N5041    N        0.94124    0.42629    0.75221    1.000
    Si5042   Si       0.92999    0.43051    0.71005    1.000
    Si5043   Si       0.87405    0.47807    0.72135    1.000
    N5044    N        0.91224    0.48928    0.74277    1.000
    Si5045   Si       0.81303    0.37246    0.78343    1.000
    N5046    N        0.84087    0.33858    0.78415    1.000
    Si5047   Si       0.83532    0.30128    0.80722    1.000
    N5048    N        0.76328    0.28808    0.77156    1.000
    N5049    N        0.82914    0.26838    0.77741    1.000
    N5050    N        0.79780    0.38304    0.82260    1.000
    N5051    N        0.89255    0.27559    0.79462    1.000
    N5052    N        0.95944    0.30585    0.79191    1.000
    Si5053   Si       0.91667    0.31206    0.79582    1.000
    N5054    N        0.95698    0.38736    0.80422    1.000
    N5055    N        0.79878    0.44889    0.79862    1.000
    Si5056   Si       0.83574    0.44480    0.77554    1.000
    Si5057   Si       0.76711    0.45743    0.77028    1.000
    N5058    N        0.93290    0.46407    0.81167    1.000
    N5059    N        0.87574    0.44894    0.79112    1.000
    Si5060   Si       0.96651    0.39332    0.76386    1.000
    Si5061   Si       0.91596    0.45499    0.77163    1.000
    Si5062   Si       0.95712    0.49989    0.81623    1.000
    Si5063   Si       0.80269    0.35051    0.85452    1.000
    Si5064   Si       0.78031    0.27601    0.84314    1.000
    N5065    N        0.84584    0.36177    0.86343    1.000
    N5066    N        0.80037    0.31221    0.83144    1.000
    Si5067   Si       0.84463    0.26854    0.87433    1.000
    N5068    N        0.86132    0.29662    0.84437    1.000
    Si5069   Si       0.87952    0.33440    0.85535    1.000
    N5070    N        0.93195    0.28275    0.84948    1.000
    Si5071   Si       0.96943    0.28111    0.82518    1.000
    Si5072   Si       0.89646    0.26024    0.83513    1.000
    Si5073   Si       0.92116    0.38667    0.82678    1.000
    Si5074   Si       0.98277    0.38279    0.83961    1.000
    N5075    N        0.90690    0.34548    0.82188    1.000
    N5076    N        0.75545    0.43660    0.85099    1.000
    Si5077   Si       0.79388    0.42496    0.83521    1.000
    N5078    N        0.82310    0.43193    0.86661    1.000
    N5079    N        0.80227    0.49417    0.86630    1.000
    Si5080   Si       0.76333    0.47519    0.87205    1.000
    Si5081   Si       0.83899    0.47301    0.87560    1.000
    Si5082   Si       0.85594    0.40376    0.87209    1.000
    Si5083   Si       0.89436    0.45603    0.83264    1.000
    N5084    N        0.87035    0.48763    0.84856    1.000
    N5085    N        0.89319    0.41402    0.84572    1.000
    N5086    N        0.94604    0.38899    0.86459    1.000
    N5087    N        0.78042    0.35333    0.89137    1.000
    Si5088   Si       0.79142    0.33724    0.93053    1.000
    N5089    N        0.83448    0.33042    0.92926    1.000
    Si5090   Si       0.74186    0.37235    0.90360    1.000
    N5091    N        0.86236    0.26713    0.91398    1.000
    N5092    N        0.80066    0.26842    0.87985    1.000
    Si5093   Si       0.87027    0.35659    0.92142    1.000
    Si5094   Si       0.93488    0.30486    0.88842    1.000
    N5095    N        0.89901    0.33280    0.89481    1.000
    N5096    N        0.94229    0.27520    0.92033    1.000
    N5097    N        0.96966    0.32852    0.89153    1.000
    Si5098   Si       0.97076    0.35731    0.92526    1.000
    N5099    N        0.75710    0.47733    0.91462    1.000
    N5100    N        0.75076    0.40810    0.92517    1.000
    N5101    N        0.86117    0.47262    0.91446    1.000
    N5102    N        0.88203    0.39701    0.90650    1.000
    Si5103   Si       0.92180    0.41101    0.89249    1.000
    N5104    N        0.94452    0.39269    0.92709    1.000
    Si5105   Si       0.95319    0.49040    0.88936    1.000
    Si5106   Si       0.90403    0.47269    0.92912    1.000
    N5107    N        0.92471    0.45612    0.89389    1.000
    N5108    N        0.79044    0.36345    0.96847    1.000
    Si5109   Si       0.78828    0.27985    0.97976    1.000
    N5110    N        0.83141    0.27410    0.97470    1.000
    Si5111   Si       0.82946    0.36747    0.98852    1.000
    Si5112   Si       0.85619    0.29451    0.94583    1.000
    Si5113   Si       0.74708    0.35663    0.98303    1.000
    N5114    N        0.77499    0.29510    0.94098    1.000
    N5115    N        0.86831    0.37407    0.96552    1.000
    Si5116   Si       0.93575    0.29669    0.95791    1.000
    N5117    N        0.95742    0.33282    0.95929    1.000
    N5118    N        0.89252    0.30936    0.96258    1.000
    Si5119   Si       0.88563    0.34103    0.99150    1.000
    N5120    N        0.95011    0.27119    0.98929    1.000
    N5121    N        0.78124    0.43388    0.97934    1.000
    Si5122   Si       0.84563    0.48365    0.95388    1.000
    N5123    N        0.85210    0.44639    0.97683    1.000
    Si5124   Si       0.78776    0.40459    0.94914    1.000
    N5125    N        0.82463    0.40657    0.93138    1.000
    N5126    N        0.96804    0.39586    0.99183    1.000
    N5127    N        0.88411    0.49972    0.96804    1.000
    N5128    N        0.98620    0.43738    0.94918    1.000
    Si5129   Si       0.86787    0.41580    0.94595    1.000
    Si5130   Si       0.94679    0.42165    0.96014    1.000
    N5131    N        0.90747    0.43953    0.95589    1.000
    Si5132   Si       0.89273    0.46402    0.99346    1.000
    Si5133   Si       0.83170    0.55218    0.04036    1.000
    N5134    N        0.77331    0.61534    0.04625    1.000
    N5135    N        0.79198    0.54628    0.02435    1.000
    Si5136   Si       0.76133    0.57417    0.03840    1.000
    N5137    N        0.83639    0.59475    0.05044    1.000
    Si5138   Si       0.78967    0.50953    0.99998    1.000
    N5139    N        0.86837    0.55579    0.01238    1.000
    Si5140   Si       0.87420    0.59704    0.02448    1.000
    N5141    N        0.96588    0.58065    0.03596    1.000
    Si5142   Si       0.96810    0.53993    0.02249    1.000
    N5143    N        0.90030    0.60543    0.05787    1.000
    Si5144   Si       0.76305    0.75127    0.01991    1.000
    Si5145   Si       0.76572    0.65749    0.03639    1.000
    Si5146   Si       0.83473    0.72854    0.02047    1.000
    N5147    N        0.78676    0.66586    0.00004    1.000
    N5148    N        0.80551    0.75840    0.00907    1.000
    N5149    N        0.81561    0.71023    0.05644    1.000
    N5150    N        0.74865    0.73972    0.05951    1.000
    N5151    N        0.87356    0.66896    0.04900    1.000
    N5152    N        0.93884    0.74867    0.02568    1.000
    N5153    N        0.87107    0.74788    0.03567    1.000
    Si5154   Si       0.87968    0.66999    0.00608    1.000
    Si5155   Si       0.94869    0.71396    0.00089    1.000
    Si5156   Si       0.80752    0.61723    0.07807    1.000
    N5157    N        0.83433    0.52082    0.07021    1.000
    N5158    N        0.77707    0.61009    0.11041    1.000
    N5159    N        0.77889    0.54076    0.11726    1.000
    Si5160   Si       0.80758    0.51077    0.10494    1.000
    Si5161   Si       0.73945    0.52821    0.10322    1.000
    Si5162   Si       0.99040    0.56848    0.10967    1.000
    Si5163   Si       0.94184    0.60031    0.06708    1.000
    N5164    N        0.95008    0.58135    0.10499    1.000
    N5165    N        0.96863    0.63514    0.06697    1.000
    Si5166   Si       0.87790    0.63591    0.08040    1.000
    N5167    N        0.83770    0.64441    0.09485    1.000
    Si5168   Si       0.75196    0.64588    0.10860    1.000
    N5169    N        0.76975    0.67249    0.07784    1.000
    Si5170   Si       0.77786    0.71388    0.07792    1.000
    Si5171   Si       0.84217    0.68503    0.07777    1.000
    Si5172   Si       0.94791    0.74362    0.06719    1.000
    N5173    N        0.98692    0.75758    0.07677    1.000
    N5174    N        0.90483    0.65275    0.11088    1.000
    N5175    N        0.86866    0.71226    0.09834    1.000
    Si5176   Si       0.87517    0.75183    0.07945    1.000
    N5177    N        0.91783    0.76167    0.09292    1.000
    Si5178   Si       0.97388    0.67363    0.08641    1.000
    N5179    N        0.94272    0.70118    0.07500    1.000
    Si5180   Si       0.90875    0.69543    0.10403    1.000
    Si5181   Si       0.78882    0.58044    0.14021    1.000
    Si5182   Si       0.85675    0.53870    0.14351    1.000
    Si5183   Si       0.85047    0.60029    0.16236    1.000
    N5184    N        0.83299    0.57359    0.12847    1.000
    N5185    N        0.75606    0.58036    0.17237    1.000
    N5186    N        0.80712    0.61135    0.17118    1.000
    N5187    N        0.89243    0.59438    0.14337    1.000
    Si5188   Si       0.92037    0.56311    0.13273    1.000
    N5189    N        0.89640    0.52823    0.12634    1.000
    N5190    N        0.94598    0.55464    0.16656    1.000
    Si5191   Si       0.96772    0.51905    0.15416    1.000
    Si5192   Si       0.74664    0.75380    0.12692    1.000
    Si5193   Si       0.80582    0.71862    0.15170    1.000
    N5194    N        0.75208    0.66229    0.14947    1.000
    N5195    N        0.82549    0.75133    0.16777    1.000
    N5196    N        0.78152    0.72710    0.11896    1.000
    N5197    N        0.81425    0.68310    0.17521    1.000
    N5198    N        0.86671    0.64137    0.17423    1.000
    Si5199   Si       0.78633    0.64936    0.17630    1.000
    Si5200   Si       0.95650    0.68795    0.15907    1.000
    Si5201   Si       0.92612    0.75832    0.13598    1.000
    N5202    N        0.98230    0.67303    0.12878    1.000
    Si5203   Si       0.90327    0.63478    0.15052    1.000
    N5204    N        0.92534    0.71387    0.14073    1.000
    N5205    N        0.93654    0.65191    0.17337    1.000
    Si5206   Si       0.77985    0.59325    0.21020    1.000
    Si5207   Si       0.84641    0.54804    0.22510    1.000
    N5208    N        0.85383    0.55845    0.18316    1.000
    N5209    N        0.81484    0.57779    0.23376    1.000
    N5210    N        0.77814    0.51399    0.19645    1.000
    Si5211   Si       0.95430    0.56767    0.20774    1.000
    N5212    N        0.92484    0.60034    0.21663    1.000
    N5213    N        0.95900    0.53414    0.23664    1.000
    Si5214   Si       0.74354    0.73937    0.20473    1.000
    N5215    N        0.77416    0.63893    0.21826    1.000
    Si5216   Si       0.85045    0.67538    0.19715    1.000
    N5217    N        0.78192    0.73775    0.22485    1.000
    Si5218   Si       0.98722    0.75044    0.18504    1.000
    Si5219   Si       0.88385    0.75423    0.19701    1.000
    N5220    N        0.97560    0.70918    0.19127    1.000
    N5221    N        0.91704    0.75631    0.22289    1.000
    N5222    N        0.87696    0.71129    0.20182    1.000
    Si5223   Si       0.98403    0.69318    0.23362    1.000
    Si5224   Si       0.93275    0.64319    0.21512    1.000
    Si5225   Si       0.82978    0.59444    0.27282    1.000
    N5226    N        0.80111    0.62405    0.28209    1.000
    Si5227   Si       0.81865    0.51809    0.28694    1.000
    N5228    N        0.74946    0.58235    0.23986    1.000
    N5229    N        0.82891    0.51260    0.24305    1.000
    N5230    N        0.86792    0.61270    0.26291    1.000
    Si5231   Si       0.90259    0.58942    0.25277    1.000
    Si5232   Si       0.91931    0.52307    0.25420    1.000
    N5233    N        0.88793    0.55039    0.24235    1.000
    N5234    N        0.93372    0.59902    0.28193    1.000
    Si5235   Si       0.96222    0.63359    0.27639    1.000
    N5236    N        0.75586    0.75349    0.28757    1.000
    N5237    N        0.78481    0.69088    0.27565    1.000
    Si5238   Si       0.78823    0.73507    0.26797    1.000
    Si5239   Si       0.79556    0.65685    0.25148    1.000
    N5240    N        0.83525    0.66576    0.23720    1.000
    N5241    N        0.82444    0.75707    0.27726    1.000
    N5242    N        0.95032    0.71232    0.25267    1.000
    N5243    N        0.88370    0.72714    0.26931    1.000
    N5244    N        0.90620    0.66486    0.23883    1.000
    Si5245   Si       0.90745    0.71067    0.23775    1.000
    Si5246   Si       0.86906    0.65620    0.26192    1.000
    N5247    N        0.97122    0.64836    0.23395    1.000
    Si5248   Si       0.76404    0.62013    0.30321    1.000
    Si5249   Si       0.75922    0.55024    0.33167    1.000
    Si5250   Si       0.83309    0.57109    0.34073    1.000
    N5251    N        0.84442    0.61321    0.33997    1.000
    N5252    N        0.77546    0.51891    0.30273    1.000
    N5253    N        0.83267    0.55957    0.29872    1.000
    N5254    N        0.74481    0.57978    0.30428    1.000
    Si5255   Si       0.93977    0.56640    0.31136    1.000
    N5256    N        0.98176    0.55972    0.32021    1.000
    N5257    N        0.92003    0.53090    0.29909    1.000
    N5258    N        0.91613    0.57434    0.34918    1.000
    N5259    N        0.77297    0.64484    0.33936    1.000
    Si5260   Si       0.75285    0.75195    0.33159    1.000
    N5261    N        0.85635    0.73171    0.33444    1.000
    N5262    N        0.74276    0.70760    0.33327    1.000
    N5263    N        0.79487    0.75812    0.34471    1.000
    Si5264   Si       0.74542    0.68548    0.29397    1.000
    Si5265   Si       0.88583    0.71373    0.31031    1.000
    N5266    N        0.92610    0.71407    0.32671    1.000
    Si5267   Si       0.95852    0.71594    0.29581    1.000
    N5268    N        0.95808    0.66924    0.30199    1.000
    Si5269   Si       0.94328    0.66824    0.34079    1.000
    Si5270   Si       0.86997    0.64819    0.33928    1.000
    N5271    N        0.87379    0.66997    0.30194    1.000
    N5272    N        0.85288    0.55112    0.37315    1.000
    Si5273   Si       0.78398    0.57913    0.39495    1.000
    N5274    N        0.80658    0.61932    0.39755    1.000
    Si5275   Si       0.83097    0.52206    0.39664    1.000
    N5276    N        0.79066    0.57150    0.35258    1.000
    Si5277   Si       0.81131    0.63612    0.35697    1.000
    N5278    N        0.79403    0.53843    0.40855    1.000
    Si5279   Si       0.93059    0.60928    0.36951    1.000
    Si5280   Si       0.89446    0.54387    0.37234    1.000
    N5281    N        0.91745    0.52828    0.40564    1.000
    N5282    N        0.96504    0.62528    0.35245    1.000
    Si5283   Si       0.79232    0.75871    0.38745    1.000
    N5284    N        0.82315    0.73035    0.39956    1.000
    Si5285   Si       0.85035    0.71089    0.37125    1.000
    N5286    N        0.83646    0.67074    0.36024    1.000
    N5287    N        0.74469    0.68254    0.40560    1.000
    N5288    N        0.74783    0.75253    0.39197    1.000
    Si5289   Si       0.74666    0.67328    0.36119    1.000
    N5290    N        0.88618    0.70375    0.39398    1.000
    N5291    N        0.92460    0.75283    0.40636    1.000
    Si5292   Si       0.93629    0.72834    0.37069    1.000
    N5293    N        0.97126    0.75225    0.35749    1.000
    N5294    N        0.95800    0.68935    0.37819    1.000
    N5295    N        0.90638    0.64817    0.35871    1.000
    Si5296   Si       0.90117    0.66412    0.40363    1.000
    N5297    N        0.74276    0.58762    0.41090    1.000
    Si5298   Si       0.82623    0.63927    0.43114    1.000
    N5299    N        0.82243    0.61378    0.46592    1.000
    N5300    N        0.94982    0.56542    0.45526    1.000
    N5301    N        0.87901    0.57521    0.44393    1.000
    Si5302   Si       0.89616    0.61513    0.44279    1.000
    Si5303   Si       0.91144    0.54650    0.44472    1.000
    Si5304   Si       0.96386    0.60056    0.43386    1.000
    N5305    N        0.92776    0.61387    0.41149    1.000
    N5306    N        0.97883    0.63578    0.45465    1.000
    N5307    N        0.75517    0.63754    0.45623    1.000
    N5308    N        0.81027    0.68042    0.44089    1.000
    Si5309   Si       0.76528    0.67905    0.44416    1.000
    Si5310   Si       0.82689    0.71958    0.44131    1.000
    N5311    N        0.80383    0.75133    0.46376    1.000
    N5312    N        0.86624    0.72721    0.45753    1.000
    Si5313   Si       0.94664    0.65974    0.47003    1.000
    N5314    N        0.92038    0.68321    0.44081    1.000
    N5315    N        0.86873    0.64134    0.42327    1.000
    Si5316   Si       0.96273    0.75230    0.43165    1.000
    Si5317   Si       0.90127    0.72329    0.43287    1.000
    N5318    N        0.93648    0.74233    0.46671    1.000
    Si5319   Si       0.78335    0.62032    0.48385    1.000
    N5320    N        0.76452    0.58602    0.50254    1.000
    N5321    N        0.82117    0.54614    0.47969    1.000
    Si5322   Si       0.79369    0.55656    0.51315    1.000
    Si5323   Si       0.84973    0.58040    0.47536    1.000
    N5324    N        0.77628    0.52084    0.52623    1.000
    N5325    N        0.87406    0.58727    0.51168    1.000
    Si5326   Si       0.91220    0.60994    0.51749    1.000
    N5327    N        0.91756    0.62915    0.47982    1.000
    Si5328   Si       0.98063    0.54678    0.47825    1.000
    N5329    N        0.96654    0.51361    0.50425    1.000
    N5330    N        0.78571    0.65442    0.51063    1.000
    Si5331   Si       0.78233    0.73371    0.49842    1.000
    Si5332   Si       0.74951    0.67799    0.51953    1.000
    N5333    N        0.82537    0.71733    0.51963    1.000
    N5334    N        0.75495    0.70587    0.47901    1.000
    Si5335   Si       0.86138    0.73092    0.50094    1.000
    Si5336   Si       0.81700    0.67187    0.53256    1.000
    N5337    N        0.95341    0.68220    0.50623    1.000
    N5338    N        0.89424    0.70865    0.51987    1.000
    Si5339   Si       0.93420    0.72055    0.50577    1.000
    N5340    N        0.81850    0.57461    0.54251    1.000
    Si5341   Si       0.85156    0.60476    0.54652    1.000
    Si5342   Si       0.80509    0.58271    0.58407    1.000
    N5343    N        0.82984    0.61878    0.58397    1.000
    N5344    N        0.89840    0.51021    0.54149    1.000
    Si5345   Si       0.90994    0.55135    0.55353    1.000
    N5346    N        0.88471    0.58208    0.57229    1.000
    Si5347   Si       0.97977    0.58412    0.54079    1.000
    N5348    N        0.93782    0.57707    0.53202    1.000
    N5349    N        0.98327    0.62649    0.53660    1.000
    Si5350   Si       0.91510    0.61539    0.58528    1.000
    N5351    N        0.74481    0.66239    0.56288    1.000
    Si5352   Si       0.82065    0.72987    0.56242    1.000
    N5353    N        0.76282    0.71697    0.53748    1.000
    N5354    N        0.80664    0.68438    0.57225    1.000
    Si5355   Si       0.76463    0.69929    0.57772    1.000
    N5356    N        0.85649    0.74519    0.58173    1.000
    N5357    N        0.85382    0.64869    0.53093    1.000
    Si5358   Si       0.88683    0.67314    0.54532    1.000
    N5359    N        0.96734    0.67173    0.58537    1.000
    N5360    N        0.91681    0.64079    0.54904    1.000
    Si5361   Si       0.89788    0.75619    0.55396    1.000
    Si5362   Si       0.95751    0.65909    0.54418    1.000
    N5363    N        0.91832    0.72623    0.58063    1.000
    N5364    N        0.87246    0.67711    0.58549    1.000
    N5365    N        0.82956    0.56408    0.61508    1.000
    N5366    N        0.76433    0.57312    0.58858    1.000
    Si5367   Si       0.80295    0.54545    0.64571    1.000
    Si5368   Si       0.74474    0.58582    0.62360    1.000
    Si5369   Si       0.87092    0.58083    0.61493    1.000
    Si5370   Si       0.91605    0.51548    0.61536    1.000
    Si5371   Si       0.96781    0.56465    0.60397    1.000
    N5372    N        0.89013    0.61846    0.62246    1.000
    N5373    N        0.95441    0.60665    0.59969    1.000
    N5374    N        0.88905    0.54491    0.63538    1.000
    N5375    N        0.93612    0.54012    0.58743    1.000
    N5376    N        0.83692    0.66310    0.63838    1.000
    Si5377   Si       0.83514    0.65975    0.59587    1.000
    Si5378   Si       0.77838    0.73252    0.63074    1.000
    N5379    N        0.76127    0.69293    0.62077    1.000
    Si5380   Si       0.74776    0.65715    0.64035    1.000
    N5381    N        0.78858    0.74349    0.59055    1.000
    N5382    N        0.96392    0.72935    0.63173    1.000
    Si5383   Si       0.98480    0.63794    0.60558    1.000
    Si5384   Si       0.88611    0.71299    0.60757    1.000
    N5385    N        0.90762    0.68690    0.63736    1.000
    N5386    N        0.88388    0.74729    0.63913    1.000
    Si5387   Si       0.95957    0.71554    0.59046    1.000
    N5388    N        0.82962    0.54216    0.67904    1.000
    Si5389   Si       0.78184    0.60897    0.68787    1.000
    N5390    N        0.77316    0.57557    0.65678    1.000
    N5391    N        0.74862    0.51770    0.68705    1.000
    N5392    N        0.82282    0.60707    0.70364    1.000
    Si5393   Si       0.87092    0.53156    0.67228    1.000
    Si5394   Si       0.96728    0.52598    0.67218    1.000
    Si5395   Si       0.98296    0.59733    0.67274    1.000
    N5396    N        0.94701    0.60827    0.69638    1.000
    N5397    N        0.97461    0.56184    0.64662    1.000
    N5398    N        0.88441    0.56349    0.70179    1.000
    N5399    N        0.80339    0.72066    0.66414    1.000
    N5400    N        0.77695    0.64876    0.66975    1.000
    Si5401   Si       0.81002    0.67676    0.66927    1.000
    Si5402   Si       0.81367    0.74677    0.69614    1.000
    N5403    N        0.85584    0.74441    0.70297    1.000
    Si5404   Si       0.92924    0.64790    0.70302    1.000
    N5405    N        0.88803    0.64603    0.68958    1.000
    Si5406   Si       0.94033    0.70499    0.65841    1.000
    N5407    N        0.95806    0.67827    0.69081    1.000
    Si5408   Si       0.89171    0.75604    0.67826    1.000
    N5409    N        0.92363    0.73078    0.69059    1.000
    Si5410   Si       0.87976    0.65541    0.64585    1.000
    N5411    N        0.83260    0.54931    0.74839    1.000
    Si5412   Si       0.84106    0.56877    0.71120    1.000
    N5413    N        0.86268    0.63026    0.75512    1.000
    N5414    N        0.74267    0.59408    0.70774    1.000
    Si5415   Si       0.92498    0.57418    0.71723    1.000
    N5416    N        0.94911    0.53951    0.71004    1.000
    N5417    N        0.91991    0.58601    0.75748    1.000
    Si5418   Si       0.95034    0.51217    0.74561    1.000
    Si5419   Si       0.85076    0.64012    0.71302    1.000
    N5420    N        0.82693    0.67603    0.70901    1.000
    N5421    N        0.79137    0.72918    0.73214    1.000
    Si5422   Si       0.81529    0.69589    0.74610    1.000
    Si5423   Si       0.86664    0.74642    0.74455    1.000
    N5424    N        0.85138    0.71151    0.76462    1.000
    N5425    N        0.98829    0.75051    0.70729    1.000
    N5426    N        0.95813    0.71706    0.75773    1.000
    N5427    N        0.92330    0.65824    0.74468    1.000
    Si5428   Si       0.95773    0.71736    0.71453    1.000
    N5429    N        0.81807    0.59570    0.79721    1.000
    Si5430   Si       0.83730    0.55697    0.79244    1.000
    N5431    N        0.81068    0.52190    0.79860    1.000
    Si5432   Si       0.77682    0.59403    0.81035    1.000
    N5433    N        0.75306    0.60007    0.77609    1.000
    N5434    N        0.87829    0.54751    0.80397    1.000
    Si5435   Si       0.92028    0.56207    0.79364    1.000
    N5436    N        0.94994    0.52994    0.78517    1.000
    Si5437   Si       0.90346    0.62554    0.76531    1.000
    Si5438   Si       0.83160    0.63575    0.78434    1.000
    Si5439   Si       0.77158    0.66871    0.80196    1.000
    N5440    N        0.84652    0.66520    0.81352    1.000
    N5441    N        0.79819    0.66180    0.77005    1.000
    N5442    N        0.78070    0.70500    0.82358    1.000
    Si5443   Si       0.86512    0.70400    0.80636    1.000
    N5444    N        0.90727    0.71016    0.79823    1.000
    Si5445   Si       0.92907    0.74261    0.77889    1.000
    N5446    N        0.91717    0.64210    0.80529    1.000
    Si5447   Si       0.93391    0.67707    0.78412    1.000
    N5448    N        0.97786    0.67270    0.79313    1.000
    Si5449   Si       0.79868    0.53083    0.84372    1.000
    N5450    N        0.83464    0.55429    0.84955    1.000
    N5451    N        0.76485    0.55935    0.83514    1.000
    Si5452   Si       0.85449    0.58149    0.87622    1.000
    N5453    N        0.77264    0.63418    0.83109    1.000
    Si5454   Si       0.87245    0.53130    0.84320    1.000
    N5455    N        0.94759    0.51680    0.85463    1.000
    N5456    N        0.87151    0.61588    0.85521    1.000
    Si5457   Si       0.91525    0.62076    0.84281    1.000
    Si5458   Si       0.95650    0.55952    0.85801    1.000
    N5459    N        0.93232    0.58186    0.83100    1.000
    Si5460   Si       0.77690    0.64403    0.87412    1.000
    Si5461   Si       0.80502    0.73676    0.84220    1.000
    Si5462   Si       0.85335    0.65413    0.85418    1.000
    N5463    N        0.84764    0.73525    0.83141    1.000
    N5464    N        0.81940    0.65440    0.87819    1.000
    N5465    N        0.93607    0.64075    0.87610    1.000
    N5466    N        0.89774    0.75834    0.87167    1.000
    N5467    N        0.88236    0.68202    0.87027    1.000
    Si5468   Si       0.97918    0.64948    0.88045    1.000
    N5469    N        0.83271    0.59419    0.91121    1.000
    N5470    N        0.77207    0.54858    0.91456    1.000
    N5471    N        0.76311    0.60884    0.89546    1.000
    Si5472   Si       0.79314    0.58703    0.92183    1.000
    Si5473   Si       0.83624    0.63910    0.91679    1.000
    Si5474   Si       0.91487    0.54809    0.91485    1.000
    N5475    N        0.94615    0.57310    0.89880    1.000
    Si5476   Si       0.96200    0.59623    0.92972    1.000
    N5477    N        0.93531    0.51138    0.92601    1.000
    N5478    N        0.88533    0.54911    0.88230    1.000
    N5479    N        0.79380    0.73497    0.88584    1.000
    Si5480   Si       0.82050    0.74205    0.91745    1.000
    N5481    N        0.75073    0.67648    0.88427    1.000
    N5482    N        0.85987    0.72393    0.92153    1.000
    Si5483   Si       0.75300    0.72052    0.88205    1.000
    Si5484   Si       0.90733    0.66284    0.90055    1.000
    Si5485   Si       0.88930    0.71968    0.88978    1.000
    N5486    N        0.98596    0.69038    0.89392    1.000
    N5487    N        0.87896    0.64294    0.92562    1.000
    Si5488   Si       0.96150    0.71891    0.91825    1.000
    N5489    N        0.92060    0.70203    0.91839    1.000
    N5490    N        0.95658    0.76229    0.90847    1.000
    N5491    N        0.77619    0.59590    0.96159    1.000
    N5492    N        0.75089    0.51944    0.97500    1.000
    Si5493   Si       0.74479    0.56742    0.97179    1.000
    N5494    N        0.81091    0.50679    0.95926    1.000
    Si5495   Si       0.77190    0.51174    0.93706    1.000
    Si5496   Si       0.96609    0.52493    0.95720    1.000
    Si5497   Si       0.89385    0.61381    0.95604    1.000
    Si5498   Si       0.89411    0.53880    0.98248    1.000
    N5499    N        0.89476    0.56978    0.94969    1.000
    N5500    N        0.93750    0.53209    0.99151    1.000
    N5501    N        0.98243    0.56505    0.95304    1.000
    N5502    N        0.87585    0.62822    0.99370    1.000
    N5503    N        0.93596    0.62174    0.95227    1.000
    Si5504   Si       0.77245    0.63896    0.96653    1.000
    N5505    N        0.74268    0.72818    0.98954    1.000
    Si5506   Si       0.81285    0.68888    0.96870    1.000
    Si5507   Si       0.75821    0.73987    0.94949    1.000
    N5508    N        0.79647    0.72052    0.94833    1.000
    N5509    N        0.80831    0.65313    0.94486    1.000
    N5510    N        0.85112    0.70172    0.98870    1.000
    N5511    N        0.90660    0.75396    0.96706    1.000
    N5512    N        0.96809    0.73089    0.96336    1.000
    Si5513   Si       0.89085    0.71319    0.95657    1.000
    N5514    N        0.91324    0.69187    0.99000    1.000
    N5515    N        0.83164    0.81316    0.04210    1.000
    N5516    N        0.77531    0.85687    0.03879    1.000
    Si5517   Si       0.79760    0.80191    0.01628    1.000
    N5518    N        0.75546    0.79362    0.02869    1.000
    N5519    N        0.84839    0.86740    0.00552    1.000
    Si5520   Si       0.79767    0.87080    0.00024    1.000
    Si5521   Si       0.86828    0.83619    0.02784    1.000
    N5522    N        0.89901    0.80890    0.01008    1.000
    N5523    N        0.96236    0.82046    0.03891    1.000
    Si5524   Si       0.90192    0.76461    0.00994    1.000
    Si5525   Si       0.93506    0.83016    0.00508    1.000
    Si5526   Si       0.99488    0.79137    0.04769    1.000
    Si5527   Si       0.85523    0.91022    0.00736    1.000
    Si5528   Si       0.80777    0.95521    0.03812    1.000
    N5529    N        0.81310    0.91436    0.01310    1.000
    N5530    N        0.80826    0.97746    0.00117    1.000
    N5531    N        0.76557    0.94890    0.04972    1.000
    N5532    N        0.96013    0.92723    0.02813    1.000
    Si5533   Si       0.92613    0.90000    0.02945    1.000
    N5534    N        0.88971    0.92365    0.03133    1.000
    Si5535   Si       0.95584    0.95835    0.99880    1.000
    Si5536   Si       0.84416    0.81836    0.08290    1.000
    N5537    N        0.81559    0.84473    0.10092    1.000
    Si5538   Si       0.78621    0.86764    0.08081    1.000
    N5539    N        0.85048    0.77907    0.10220    1.000
    N5540    N        0.74855    0.85935    0.10233    1.000
    N5541    N        0.87870    0.84284    0.07134    1.000
    Si5542   Si       0.96544    0.85103    0.06920    1.000
    Si5543   Si       0.89797    0.87501    0.09410    1.000
    N5544    N        0.96677    0.82888    0.10721    1.000
    N5545    N        0.93313    0.88050    0.06882    1.000
    N5546    N        0.79835    0.90731    0.09797    1.000
    Si5547   Si       0.76710    0.93640    0.09411    1.000
    N5548    N        0.83621    0.96590    0.06909    1.000
    Si5549   Si       0.83261    0.00794    0.08604    1.000
    Si5550   Si       0.76235    0.01054    0.10729    1.000
    Si5551   Si       0.87773    0.94602    0.06714    1.000
    N5552    N        0.97172    0.94349    0.09561    1.000
    N5553    N        0.95585    0.00900    0.11637    1.000
    Si5554   Si       0.93754    0.96964    0.10733    1.000
    N5555    N        0.86997    0.90973    0.09214    1.000
    Si5556   Si       0.98767    0.92076    0.06202    1.000
    N5557    N        0.90407    0.97939    0.07965    1.000
    Si5558   Si       0.81418    0.84366    0.14476    1.000
    N5559    N        0.77351    0.83310    0.15547    1.000
    Si5560   Si       0.85121    0.77903    0.14478    1.000
    N5561    N        0.83910    0.81500    0.16549    1.000
    N5562    N        0.84208    0.87814    0.15188    1.000
    N5563    N        0.75100    0.76548    0.16934    1.000
    Si5564   Si       0.74007    0.85960    0.14512    1.000
    N5565    N        0.91058    0.87374    0.13540    1.000
    N5566    N        0.96462    0.76833    0.15367    1.000
    N5567    N        0.89092    0.76945    0.15790    1.000
    Si5568   Si       0.88213    0.86875    0.17021    1.000
    Si5569   Si       0.98422    0.80372    0.13681    1.000
    N5570    N        0.99184    0.82756    0.17263    1.000
    N5571    N        0.74859    0.89494    0.16770    1.000
    Si5572   Si       0.81442    0.97461    0.14311    1.000
    N5573    N        0.84775    0.94496    0.14252    1.000
    Si5574   Si       0.83737    0.90716    0.12006    1.000
    N5575    N        0.77936    0.97145    0.11948    1.000
    N5576    N        0.83088    0.01322    0.13025    1.000
    N5577    N        0.91970    0.95169    0.14199    1.000
    Si5578   Si       0.93078    0.90928    0.15283    1.000
    N5579    N        0.97366    0.90891    0.15687    1.000
    Si5580   Si       0.88366    0.94718    0.16794    1.000
    Si5581   Si       0.84984    0.82116    0.20523    1.000
    N5582    N        0.78718    0.80110    0.21786    1.000
    N5583    N        0.85263    0.77812    0.22057    1.000
    Si5584   Si       0.75901    0.80525    0.18308    1.000
    Si5585   Si       0.81006    0.76676    0.20778    1.000
    N5586    N        0.89154    0.83797    0.19996    1.000
    Si5587   Si       0.98146    0.83346    0.21766    1.000
    N5588    N        0.98777    0.87753    0.22340    1.000
    N5589    N        0.98729    0.76387    0.22606    1.000
    Si5590   Si       0.76416    0.96279    0.20365    1.000
    N5591    N        0.80045    0.97369    0.18444    1.000
    Si5592   Si       0.83463    0.98959    0.20649    1.000
    Si5593   Si       0.74325    0.89139    0.21127    1.000
    N5594    N        0.75977    0.92677    0.22822    1.000
    N5595    N        0.75526    0.99161    0.23474    1.000
    N5596    N        0.94238    0.00199    0.21745    1.000
    N5597    N        0.89704    0.90864    0.18604    1.000
    Si5598   Si       0.90101    0.90459    0.22918    1.000
    N5599    N        0.87564    0.97713    0.19730    1.000
    Si5600   Si       0.90190    0.99944    0.22581    1.000
    Si5601   Si       0.85667    0.87719    0.25968    1.000
    Si5602   Si       0.79338    0.83536    0.24489    1.000
    N5603    N        0.83309    0.84960    0.23320    1.000
    Si5604   Si       0.86616    0.76583    0.26145    1.000
    N5605    N        0.79004    0.83602    0.28854    1.000
    Si5606   Si       0.75147    0.86314    0.28756    1.000
    N5607    N        0.75777    0.85934    0.23979    1.000
    Si5608   Si       0.95079    0.77071    0.24888    1.000
    N5609    N        0.89935    0.86641    0.25688    1.000
    N5610    N        0.88923    0.80174    0.27274    1.000
    Si5611   Si       0.90663    0.82515    0.24148    1.000
    N5612    N        0.94888    0.81631    0.23775    1.000
    N5613    N        0.96675    0.87354    0.29337    1.000
    N5614    N        0.95218    0.76517    0.29053    1.000
    Si5615   Si       0.78528    0.99062    0.26794    1.000
    Si5616   Si       0.85364    0.95586    0.26439    1.000
    N5617    N        0.82407    0.98212    0.24836    1.000
    N5618    N        0.86229    0.91748    0.24596    1.000
    N5619    N        0.76964    0.95553    0.28957    1.000
    Si5620   Si       0.97393    0.90149    0.25862    1.000
    Si5621   Si       0.92151    0.94725    0.28167    1.000
    N5622    N        0.93717    0.92198    0.25048    1.000
    N5623    N        0.89481    0.97556    0.26132    1.000
    Si5624   Si       0.82040    0.84402    0.31812    1.000
    N5625    N        0.84514    0.80709    0.32178    1.000
    N5626    N        0.84359    0.87793    0.30213    1.000
    Si5627   Si       0.83037    0.76564    0.32019    1.000
    N5628    N        0.76062    0.87899    0.33152    1.000
    N5629    N        0.91053    0.78307    0.34270    1.000
    N5630    N        0.90785    0.84736    0.32413    1.000
    N5631    N        0.96969    0.81981    0.33194    1.000
    Si5632   Si       0.95144    0.78065    0.33018    1.000
    Si5633   Si       0.88734    0.81011    0.31586    1.000
    Si5634   Si       0.92289    0.87422    0.29445    1.000
    N5635    N        0.80344    0.99194    0.33716    1.000
    N5636    N        0.84982    0.95195    0.30636    1.000
    Si5637   Si       0.84653    0.98759    0.33338    1.000
    Si5638   Si       0.78563    0.95059    0.33030    1.000
    Si5639   Si       0.85806    0.91218    0.32348    1.000
    N5640    N        0.94927    0.96829    0.30474    1.000
    Si5641   Si       0.96498    0.00836    0.30219    1.000
    Si5642   Si       0.96547    0.96357    0.34603    1.000
    N5643    N        0.98087    0.00471    0.34152    1.000
    N5644    N        0.90868    0.91500    0.30945    1.000
    Si5645   Si       0.83002    0.82651    0.39196    1.000
    N5646    N        0.81236    0.85209    0.36086    1.000
    N5647    N        0.80488    0.79501    0.40738    1.000
    N5648    N        0.86936    0.81036    0.39695    1.000
    N5649    N        0.93741    0.82211    0.39072    1.000
    Si5650   Si       0.90946    0.78991    0.38681    1.000
    Si5651   Si       0.93949    0.84292    0.35285    1.000
    N5652    N        0.94891    0.88423    0.36136    1.000
    Si5653   Si       0.78710    0.88734    0.36589    1.000
    Si5654   Si       0.75605    0.94078    0.39539    1.000
    Si5655   Si       0.84285    0.93479    0.38040    1.000
    N5656    N        0.76872    0.89885    0.40388    1.000
    N5657    N        0.78654    0.97103    0.40228    1.000
    N5658    N        0.85377    0.97660    0.37612    1.000
    Si5659   Si       0.79030    0.00712    0.37703    1.000
    N5660    N        0.75081    0.94056    0.35190    1.000
    N5661    N        0.81256    0.92196    0.35171    1.000
    Si5662   Si       0.98938    0.90137    0.36888    1.000
    Si5663   Si       0.91699    0.91177    0.35462    1.000
    N5664    N        0.93358    0.94861    0.37130    1.000
    N5665    N        0.87536    0.91270    0.36422    1.000
    N5666    N        0.96620    0.99519    0.40448    1.000
    Si5667   Si       0.80896    0.79235    0.45096    1.000
    N5668    N        0.83569    0.85416    0.42617    1.000
    N5669    N        0.84808    0.80428    0.46710    1.000
    N5670    N        0.77879    0.81889    0.46871    1.000
    Si5671   Si       0.87459    0.82921    0.44019    1.000
    N5672    N        0.95799    0.86577    0.44488    1.000
    N5673    N        0.97707    0.79398    0.44002    1.000
    N5674    N        0.91291    0.80712    0.45377    1.000
    Si5675   Si       0.94714    0.82500    0.43284    1.000
    N5676    N        0.89099    0.87423    0.44356    1.000
    Si5677   Si       0.84974    0.89104    0.44421    1.000
    Si5678   Si       0.81143    0.96093    0.43629    1.000
    N5679    N        0.83487    0.92558    0.42206    1.000
    N5680    N        0.83780    0.99349    0.44355    1.000
    Si5681   Si       0.75341    0.90564    0.44655    1.000
    Si5682   Si       0.86693    0.99860    0.40946    1.000
    N5683    N        0.94126    0.93221    0.44276    1.000
    N5684    N        0.90476    0.98936    0.42716    1.000
    Si5685   Si       0.93562    0.96456    0.41293    1.000
    Si5686   Si       0.92627    0.89262    0.45734    1.000
    Si5687   Si       0.91284    0.00843    0.46663    1.000
    Si5688   Si       0.85519    0.80745    0.50893    1.000
    Si5689   Si       0.77826    0.81400    0.51254    1.000
    N5690    N        0.76016    0.77359    0.51312    1.000
    N5691    N        0.81876    0.82365    0.52850    1.000
    Si5692   Si       0.74643    0.88412    0.52790    1.000
    N5693    N        0.86917    0.76933    0.52010    1.000
    N5694    N        0.88486    0.83677    0.51389    1.000
    N5695    N        0.95630    0.82012    0.50102    1.000
    Si5696   Si       0.93349    0.78278    0.48554    1.000
    Si5697   Si       0.92830    0.84609    0.52032    1.000
    Si5698   Si       0.87502    0.88053    0.51153    1.000
    N5699    N        0.80707    0.01096    0.50711    1.000
    N5700    N        0.84265    0.89617    0.48619    1.000
    N5701    N        0.76335    0.89338    0.48622    1.000
    Si5702   Si       0.77558    0.98030    0.49932    1.000
    Si5703   Si       0.80296    0.91103    0.49798    1.000
    N5704    N        0.79233    0.94729    0.47330    1.000
    N5705    N        0.97184    0.92665    0.50672    1.000
    N5706    N        0.94999    0.99348    0.48159    1.000
    Si5707   Si       0.96426    0.95286    0.47421    1.000
    N5708    N        0.91849    0.88747    0.50295    1.000
    Si5709   Si       0.82006    0.86151    0.55213    1.000
    N5710    N        0.75435    0.84056    0.54003    1.000
    N5711    N        0.85866    0.88363    0.55199    1.000
    N5712    N        0.94081    0.84538    0.56151    1.000
    Si5713   Si       0.97190    0.87579    0.57050    1.000
    Si5714   Si       0.97380    0.77132    0.55085    1.000
    N5715    N        0.90026    0.79210    0.58034    1.000
    N5716    N        0.93739    0.76131    0.52616    1.000
    Si5717   Si       0.76277    0.99360    0.56638    1.000
    N5718    N        0.85673    0.99805    0.55552    1.000
    N5719    N        0.79254    0.89391    0.53638    1.000
    N5720    N        0.77506    0.96168    0.53949    1.000
    Si5721   Si       0.78223    0.92691    0.56812    1.000
    N5722    N        0.82552    0.93751    0.57982    1.000
    Si5723   Si       0.85766    0.90913    0.58734    1.000
    Si5724   Si       0.93355    0.91996    0.52893    1.000
    N5725    N        0.94360    0.91018    0.57100    1.000
    Si5726   Si       0.89435    0.99794    0.53395    1.000
    N5727    N        0.91240    0.95579    0.52609    1.000
    Si5728   Si       0.83944    0.84647    0.62619    1.000
    Si5729   Si       0.78157    0.86441    0.62442    1.000
    N5730    N        0.81219    0.85094    0.59317    1.000
    N5731    N        0.74679    0.84140    0.61489    1.000
    N5732    N        0.86474    0.81218    0.63229    1.000
    N5733    N        0.75165    0.76540    0.64340    1.000
    Si5734   Si       0.87159    0.77673    0.60864    1.000
    N5735    N        0.93091    0.83378    0.63270    1.000
    N5736    N        0.96777    0.78752    0.59028    1.000
    Si5737   Si       0.93394    0.81484    0.59159    1.000
    N5738    N        0.98908    0.86692    0.61163    1.000
    Si5739   Si       0.98679    0.76818    0.62661    1.000
    Si5740   Si       0.97167    0.84397    0.64520    1.000
    N5741    N        0.86065    0.88478    0.62209    1.000
    Si5742   Si       0.85333    0.97207    0.58979    1.000
    Si5743   Si       0.76067    0.93957    0.63320    1.000
    N5744    N        0.78053    0.90598    0.61436    1.000
    N5745    N        0.83736    0.99496    0.62109    1.000
    N5746    N        0.76858    0.96997    0.60242    1.000
    Si5747   Si       0.79546    0.00276    0.61580    1.000
    Si5748   Si       0.94939    0.00994    0.59099    1.000
    N5749    N        0.95529    0.96897    0.60328    1.000
    N5750    N        0.92453    0.91483    0.64071    1.000
    Si5751   Si       0.92807    0.93595    0.60278    1.000
    N5752    N        0.88537    0.94352    0.59438    1.000
    N5753    N        0.80843    0.84956    0.65577    1.000
    Si5754   Si       0.75262    0.78427    0.68250    1.000
    Si5755   Si       0.80527    0.85879    0.69746    1.000
    N5756    N        0.79034    0.78293    0.70113    1.000
    N5757    N        0.90309    0.79781    0.68973    1.000
    N5758    N        0.89088    0.86366    0.68165    1.000
    N5759    N        0.96815    0.87463    0.67805    1.000
    Si5760   Si       0.89705    0.82713    0.65821    1.000
    N5761    N        0.98540    0.80241    0.65671    1.000
    N5762    N        0.74567    0.88834    0.67749    1.000
    Si5763   Si       0.77221    0.91721    0.69976    1.000
    N5764    N        0.81306    0.90108    0.69816    1.000
    N5765    N        0.77274    0.95139    0.67233    1.000
    Si5766   Si       0.78750    0.99229    0.68467    1.000
    N5767    N        0.83009    0.00552    0.68783    1.000
    Si5768   Si       0.90164    0.96226    0.68932    1.000
    Si5769   Si       0.95861    0.91662    0.66833    1.000
    N5770    N        0.87340    0.93110    0.68279    1.000
    N5771    N        0.89941    0.99652    0.66217    1.000
    Si5772   Si       0.88597    0.89774    0.65469    1.000
    N5773    N        0.94120    0.94430    0.69794    1.000
    N5774    N        0.77429    0.85642    0.72776    1.000
    N5775    N        0.83730    0.83883    0.72000    1.000
    Si5776   Si       0.81579    0.81786    0.75253    1.000
    Si5777   Si       0.76872    0.76658    0.74328    1.000
    N5778    N        0.84367    0.78205    0.75899    1.000
    Si5779   Si       0.87556    0.85843    0.72385    1.000
    Si5780   Si       0.92099    0.79967    0.72904    1.000
    Si5781   Si       0.96953    0.85979    0.72066    1.000
    N5782    N        0.89872    0.83262    0.75229    1.000
    N5783    N        0.96017    0.81631    0.72209    1.000
    N5784    N        0.90595    0.76492    0.75135    1.000
    N5785    N        0.82030    0.94886    0.74157    1.000
    N5786    N        0.75040    0.91812    0.73686    1.000
    Si5787   Si       0.84519    0.92437    0.71552    1.000
    Si5788   Si       0.79854    0.98568    0.75472    1.000
    N5789    N        0.77139    0.00013    0.72373    1.000
    Si5790   Si       0.76571    0.88547    0.76076    1.000
    Si5791   Si       0.95425    0.92948    0.73724    1.000
    N5792    N        0.94457    0.88720    0.74412    1.000
    N5793    N        0.87236    0.90022    0.73923    1.000
    N5794    N        0.88562    0.98523    0.72721    1.000
    N5795    N        0.99133    0.01032    0.73412    1.000
    N5796    N        0.83758    0.83878    0.78533    1.000
    Si5797   Si       0.75854    0.78975    0.80472    1.000
    Si5798   Si       0.81953    0.86723    0.81298    1.000
    N5799    N        0.77742    0.80135    0.76758    1.000
    Si5800   Si       0.86976    0.80988    0.77809    1.000
    N5801    N        0.94558    0.84017    0.80461    1.000
    Si5802   Si       0.92514    0.86312    0.77512    1.000
    N5803    N        0.88984    0.79598    0.81371    1.000
    N5804    N        0.95464    0.77204    0.79926    1.000
    Si5805   Si       0.93264    0.80195    0.81917    1.000
    N5806    N        0.79386    0.97026    0.79745    1.000
    N5807    N        0.80093    0.89704    0.78438    1.000
    Si5808   Si       0.82235    0.93579    0.78284    1.000
    N5809    N        0.86204    0.94241    0.79621    1.000
    N5810    N        0.97630    0.99513    0.79219    1.000
    N5811    N        0.90361    0.89000    0.79951    1.000
    N5812    N        0.89409    0.99859    0.80098    1.000
    N5813    N        0.92590    0.94938    0.76422    1.000
    Si5814   Si       0.89119    0.92271    0.77250    1.000
    Si5815   Si       0.91108    0.98943    0.76114    1.000
    N5816    N        0.84141    0.79619    0.86680    1.000
    Si5817   Si       0.79952    0.80835    0.85764    1.000
    N5818    N        0.78942    0.84538    0.83554    1.000
    N5819    N        0.78954    0.77598    0.83090    1.000
    Si5820   Si       0.74799    0.85342    0.82810    1.000
    Si5821   Si       0.86731    0.77111    0.84279    1.000
    Si5822   Si       0.94872    0.85242    0.84770    1.000
    N5823    N        0.94290    0.80969    0.86015    1.000
    N5824    N        0.91059    0.87093    0.86601    1.000
    N5825    N        0.98536    0.86484    0.86692    1.000
    N5826    N        0.84575    0.88678    0.84128    1.000
    N5827    N        0.84017    0.97524    0.84970    1.000
    Si5828   Si       0.75903    0.96799    0.83534    1.000
    N5829    N        0.78013    0.95153    0.87047    1.000
    Si5830   Si       0.81244    0.99913    0.82578    1.000
    Si5831   Si       0.75278    0.91669    0.88003    1.000
    N5832    N        0.77572    0.00972    0.84463    1.000
    Si5833   Si       0.98829    0.99883    0.83348    1.000
    Si5834   Si       0.88827    0.89691    0.84016    1.000
    N5835    N        0.89766    0.00096    0.87107    1.000
    N5836    N        0.90114    0.94041    0.85185    1.000
    N5837    N        0.95936    0.98898    0.86572    1.000
    Si5838   Si       0.87783    0.96974    0.83030    1.000
    Si5839   Si       0.92704    0.95922    0.88191    1.000
    N5840    N        0.84723    0.85410    0.90035    1.000
    N5841    N        0.78241    0.81855    0.89779    1.000
    Si5842   Si       0.85107    0.81033    0.90566    1.000
    Si5843   Si       0.75824    0.85417    0.89936    1.000
    N5844    N        0.82746    0.78275    0.92946    1.000
    N5845    N        0.89606    0.81310    0.91105    1.000
    Si5846   Si       0.89279    0.85584    0.90355    1.000
    Si5847   Si       0.92377    0.78598    0.89070    1.000
    N5848    N        0.96430    0.87294    0.93422    1.000
    Si5849   Si       0.82731    0.89047    0.88196    1.000
    N5850    N        0.78475    0.88890    0.89376    1.000
    N5851    N        0.82977    0.00131    0.90876    1.000
    N5852    N        0.84098    0.92636    0.90040    1.000
    Si5853   Si       0.81257    0.96033    0.89755    1.000
    N5854    N        0.79210    0.95280    0.93904    1.000
    Si5855   Si       0.74900    0.96103    0.93883    1.000
    N5856    N        0.89711    0.88921    0.93205    1.000
    Si5857   Si       0.87393    0.99893    0.90789    1.000
    N5858    N        0.95280    0.99679    0.93915    1.000
    N5859    N        0.89743    0.96052    0.91724    1.000
    Si5860   Si       0.87287    0.92592    0.92956    1.000
    N5861    N        0.96322    0.93040    0.88904    1.000
    Si5862   Si       0.98408    0.89362    0.90072    1.000
    N5863    N        0.79537    0.82791    0.98088    1.000
    N5864    N        0.75516    0.78419    0.94917    1.000
    Si5865   Si       0.78975    0.80710    0.93860    1.000
    N5866    N        0.76608    0.89149    0.97516    1.000
    N5867    N        0.95539    0.80773    0.96975    1.000
    Si5868   Si       0.94488    0.76959    0.95393    1.000
    Si5869   Si       0.98311    0.83600    0.95122    1.000
    N5870    N        0.92884    0.87225    0.99588    1.000
    N5871    N        0.85439    0.93068    0.96777    1.000
    Si5872   Si       0.81150    0.94006    0.97583    1.000
    N5873    N        0.74416    0.96131    0.98358    1.000
    Si5874   Si       0.77090    0.99610    0.99207    1.000
    N5875    N        0.88553    0.01352    0.94555    1.000
    Si5876   Si       0.93192    0.89308    0.95660    1.000
    Si5877   Si       0.91560    0.97916    0.95539    1.000
    N5878    N        0.93558    0.93581    0.96501    1.000
    N5879    N        0.92380    0.98917    0.99919    1.000
