# CIF file generated by openbabel 3.1.1, see https://openbabel.org
data_I
_chemical_name_common '3.01-71.aims'
_cell_length_a 39.9954
_cell_length_b 39.9954
_cell_length_c 39.9954
_cell_angle_alpha 90
_cell_angle_beta 90
_cell_angle_gamma 90
loop_
    _atom_site_label
    _atom_site_type_symbol
    _atom_site_fract_x
    _atom_site_fract_y
    _atom_site_fract_z
    _atom_site_occupancy
    N0       N        0.01011    0.11065    0.04033    1.000
    Si1      Si       0.00227    0.09087    0.00415    1.000
    N2       N        0.04042    0.06714    0.08488    1.000
    N3       N        0.02652    0.05677    0.99984    1.000
    N4       N        0.04496    0.01220    0.04542    1.000
    Si5      Si       0.04479    0.10110    0.06144    1.000
    Si6      Si       0.99923    0.02346    0.99532    1.000
    N7       N        0.00376    0.25084    0.07697    1.000
    Si8      Si       0.03367    0.17734    0.07724    1.000
    Si9      Si       0.00367    0.22854    0.11454    1.000
    Si10     Si       0.03953    0.24886    0.05176    1.000
    N11      N        0.03121    0.19720    0.11662    1.000
    N12      N        0.99052    0.17437    0.06742    1.000
    N13      N        0.02627    0.08319    0.18179    1.000
    N14      N        0.03344    0.02156    0.21323    1.000
    Si15     Si       0.99948    0.02031    0.13454    1.000
    N16      N        0.04245    0.02083    0.14574    1.000
    Si17     Si       0.04090    0.24599    0.18830    1.000
    N18      N        0.04225    0.16410    0.17799    1.000
    N19      N        0.03162    0.21666    0.22013    1.000
    N20      N        0.01017    0.14983    0.23817    1.000
    Si21     Si       0.01405    0.17943    0.20626    1.000
    N22      N        0.00882    0.24555    0.15862    1.000
    N23      N        0.01919    0.06568    0.33717    1.000
    Si24     Si       0.00503    0.11283    0.32219    1.000
    N25      N        0.03853    0.11402    0.29271    1.000
    N26      N        0.01878    0.13240    0.35742    1.000
    N27      N        0.02049    0.21822    0.29510    1.000
    N28      N        0.00286    0.19865    0.35277    1.000
    Si29     Si       0.03447    0.22153    0.33745    1.000
    Si30     Si       0.98732    0.19177    0.31233    1.000
    N31      N        0.03446    0.05547    0.40319    1.000
    Si32     Si       0.01292    0.03727    0.48524    1.000
    Si33     Si       0.99600    0.04082    0.41586    1.000
    N34      N        0.02399    0.12892    0.47443    1.000
    N35      N        0.98756    0.05710    0.45658    1.000
    Si36     Si       0.99888    0.16314    0.38169    1.000
    N37      N        0.01534    0.17056    0.42136    1.000
    Si38     Si       0.99224    0.14951    0.45419    1.000
    Si39     Si       0.01094    0.10198    0.50862    1.000
    N40      N        0.01123    0.06125    0.52305    1.000
    N41      N        0.01552    0.12447    0.54681    1.000
    N42      N        0.01565    0.17656    0.59789    1.000
    N43      N        0.00632    0.19014    0.52791    1.000
    Si44     Si       0.00026    0.16304    0.56019    1.000
    N45      N        0.01555    0.10965    0.69669    1.000
    Si46     Si       0.00226    0.01688    0.70253    1.000
    N47      N        0.02041    0.04949    0.72727    1.000
    Si48     Si       0.04281    0.07577    0.69905    1.000
    N49      N        0.03194    0.12082    0.63169    1.000
    Si50     Si       0.99797    0.12023    0.65838    1.000
    N51      N        0.03797    0.05646    0.65858    1.000
    Si52     Si       0.99207    0.11135    0.73238    1.000
    N53      N        0.00643    0.22737    0.64533    1.000
    Si54     Si       0.00797    0.02627    0.76102    1.000
    Si55     Si       0.03390    0.04904    0.83158    1.000
    N56      N        0.00315    0.10371    0.77334    1.000
    N57      N        0.03385    0.02337    0.79565    1.000
    Si58     Si       0.03953    0.11838    0.78971    1.000
    N59      N        0.99150    0.06035    0.83646    1.000
    Si60     Si       0.01771    0.24526    0.77727    1.000
    N61      N        0.03065    0.16133    0.79362    1.000
    Si62     Si       0.99430    0.17160    0.77075    1.000
    N63      N        0.03315    0.23937    0.81778    1.000
    N64      N        0.98802    0.21416    0.77231    1.000
    N65      N        0.00349    0.15142    0.87245    1.000
    N66      N        0.00385    0.11551    0.96922    1.000
    Si67     Si       0.04363    0.13515    0.96516    1.000
    N68      N        0.04737    0.15956    0.92869    1.000
    Si69     Si       0.01290    0.33441    0.08876    1.000
    Si70     Si       0.01373    0.30491    0.01431    1.000
    N71      N        0.03295    0.32976    0.04869    1.000
    N72      N        0.03726    0.26896    0.01385    1.000
    N73      N        0.02511    0.37607    0.09650    1.000
    N74      N        0.03078    0.30646    0.11831    1.000
    Si75     Si       0.03038    0.40467    0.06543    1.000
    Si76     Si       0.01360    0.46397    0.10420    1.000
    N77      N        0.03544    0.50138    0.11165    1.000
    N78      N        0.99856    0.41512    0.03903    1.000
    N79      N        0.99515    0.47540    0.01802    1.000
    Si80     Si       0.00909    0.43398    0.99821    1.000
    N81      N        0.04448    0.44188    0.08351    1.000
    N82      N        0.03912    0.28926    0.19161    1.000
    Si83     Si       0.01114    0.29208    0.15640    1.000
    N84      N        0.03997    0.35189    0.22796    1.000
    Si85     Si       0.01877    0.38663    0.20976    1.000
    N86      N        0.02589    0.41851    0.23792    1.000
    N87      N        0.03893    0.38653    0.17157    1.000
    N88      N        0.00412    0.43572    0.13869    1.000
    Si89     Si       0.01399    0.39200    0.13586    1.000
    Si90     Si       0.02990    0.50851    0.15668    1.000
    N91      N        0.99011    0.49259    0.16411    1.000
    Si92     Si       0.02294    0.33819    0.26789    1.000
    Si93     Si       0.01934    0.35829    0.33464    1.000
    N94      N        0.02998    0.37089    0.29293    1.000
    N95      N        0.03562    0.29840    0.28229    1.000
    Si96     Si       0.01116    0.26515    0.29818    1.000
    N97      N        0.02415    0.26451    0.33917    1.000
    Si98     Si       0.03860    0.29535    0.36422    1.000
    Si99     Si       0.01330    0.46273    0.32908    1.000
    N100     N        0.01160    0.44269    0.29156    1.000
    Si101    Si       0.04082    0.41020    0.28012    1.000
    N102     N        0.04503    0.49358    0.32437    1.000
    N103     N        0.00768    0.44107    0.36624    1.000
    Si104    Si       0.01569    0.45880    0.24986    1.000
    N105     N        0.00150    0.37377    0.37075    1.000
    Si106    Si       0.01143    0.26452    0.48669    1.000
    N107     N        0.03375    0.27882    0.45296    1.000
    N108     N        0.00947    0.30823    0.39393    1.000
    Si109    Si       0.02448    0.31488    0.43236    1.000
    Si110    Si       0.00897    0.43008    0.46974    1.000
    N111     N        0.00257    0.46974    0.45323    1.000
    N112     N        0.01987    0.40597    0.43346    1.000
    Si113    Si       0.00133    0.40938    0.39424    1.000
    Si114    Si       0.02976    0.50454    0.46356    1.000
    Si115    Si       0.00659    0.29276    0.56182    1.000
    Si116    Si       0.02450    0.35750    0.56462    1.000
    N117     N        0.02573    0.35739    0.60992    1.000
    N118     N        0.00410    0.29541    0.51685    1.000
    N119     N        0.02022    0.36128    0.51018    1.000
    N120     N        0.00727    0.28871    0.61156    1.000
    N121     N        0.02832    0.47249    0.56937    1.000
    Si122    Si       0.00735    0.40280    0.52163    1.000
    Si123    Si       0.03639    0.47661    0.52588    1.000
    N124     N        0.00332    0.39802    0.56340    1.000
    N125     N        0.02851    0.43811    0.50744    1.000
    Si126    Si       0.99222    0.33045    0.62110    1.000
    Si127    Si       0.04005    0.26959    0.71266    1.000
    N128     N        0.00219    0.32598    0.66443    1.000
    N129     N        0.99772    0.26398    0.70625    1.000
    Si130    Si       0.04467    0.33563    0.67092    1.000
    N131     N        0.02990    0.42928    0.62372    1.000
    Si132    Si       0.99521    0.47410    0.70675    1.000
    Si133    Si       0.99158    0.43941    0.64169    1.000
    N134     N        0.99214    0.43701    0.68456    1.000
    N135     N        0.03539    0.48827    0.69410    1.000
    Si136    Si       0.03241    0.28108    0.83191    1.000
    N137     N        0.03828    0.35651    0.76319    1.000
    N138     N        0.03262    0.37296    0.83885    1.000
    N139     N        0.99540    0.30040    0.84022    1.000
    N140     N        0.99376    0.28122    0.77771    1.000
    Si141    Si       0.99472    0.35639    0.75768    1.000
    N142     N        0.99865    0.41413    0.80654    1.000
    N143     N        0.03150    0.49740    0.83235    1.000
    Si144    Si       0.04242    0.41539    0.81699    1.000
    Si145    Si       0.99113    0.48782    0.84713    1.000
    Si146    Si       0.04535    0.49381    0.79128    1.000
    N147     N        0.98450    0.46350    0.74830    1.000
    Si148    Si       0.02926    0.26148    0.90706    1.000
    N149     N        0.00722    0.32415    0.97699    1.000
    N150     N        0.01840    0.33194    0.90318    1.000
    Si151    Si       0.03352    0.32240    0.94403    1.000
    Si152    Si       0.03759    0.36734    0.88285    1.000
    N153     N        0.04474    0.28013    0.94246    1.000
    N154     N        0.04590    0.47570    0.91246    1.000
    N155     N        0.99150    0.45589    0.87421    1.000
    N156     N        0.02111    0.40431    0.90561    1.000
    N157     N        0.00642    0.39523    0.97678    1.000
    N158     N        0.99589    0.45191    0.95847    1.000
    N159     N        0.04288    0.50701    0.97999    1.000
    Si160    Si       0.02310    0.48345    0.94747    1.000
    Si161    Si       0.98985    0.41099    0.93706    1.000
    Si162    Si       0.03037    0.44068    0.88662    1.000
    N163     N        0.01196    0.60359    0.04942    1.000
    N164     N        0.01182    0.53298    0.05372    1.000
    N165     N        0.00446    0.56879    0.10932    1.000
    Si166    Si       0.01589    0.51406    0.01495    1.000
    Si167    Si       0.99151    0.57141    0.06814    1.000
    Si168    Si       0.04502    0.52162    0.07557    1.000
    Si169    Si       0.03443    0.64642    0.11119    1.000
    Si170    Si       0.00166    0.64492    0.05849    1.000
    N171     N        0.03314    0.74287    0.02131    1.000
    N172     N        0.03882    0.66380    0.06972    1.000
    N173     N        0.99115    0.64120    0.10085    1.000
    Si174    Si       0.99271    0.75788    0.02411    1.000
    N175     N        0.00967    0.55729    0.23368    1.000
    N176     N        0.00235    0.61285    0.16809    1.000
    Si177    Si       0.99409    0.58220    0.20224    1.000
    Si178    Si       0.04453    0.57018    0.12515    1.000
    N179     N        0.04225    0.74681    0.14885    1.000
    Si180    Si       0.01713    0.65167    0.17713    1.000
    N181     N        0.03792    0.67383    0.14437    1.000
    N182     N        0.04801    0.65086    0.20943    1.000
    N183     N        0.02586    0.55576    0.34939    1.000
    Si184    Si       0.02898    0.53180    0.31318    1.000
    N185     N        0.03647    0.61367    0.27343    1.000
    Si186    Si       0.02358    0.62406    0.31350    1.000
    Si187    Si       0.04552    0.57564    0.25478    1.000
    Si188    Si       0.98689    0.57384    0.35828    1.000
    N189     N        0.01859    0.72442    0.36103    1.000
    N190     N        0.03456    0.73001    0.29022    1.000
    N191     N        0.01439    0.66759    0.31605    1.000
    Si192    Si       0.01287    0.68052    0.35674    1.000
    Si193    Si       0.00473    0.69844    0.28756    1.000
    N194     N        0.00088    0.67084    0.25415    1.000
    Si195    Si       0.03089    0.75175    0.32783    1.000
    Si196    Si       0.04093    0.65189    0.25198    1.000
    N197     N        0.02806    0.53970    0.43807    1.000
    Si198    Si       0.02768    0.62430    0.46588    1.000
    Si199    Si       0.99380    0.56548    0.43548    1.000
    N200     N        0.99462    0.59447    0.46796    1.000
    N201     N        0.99048    0.59177    0.39926    1.000
    Si202    Si       0.00672    0.74020    0.40113    1.000
    N203     N        0.03176    0.71736    0.42776    1.000
    N204     N        0.01484    0.64759    0.43291    1.000
    Si205    Si       0.00884    0.53997    0.53712    1.000
    Si206    Si       0.00088    0.60362    0.56691    1.000
    N207     N        0.04008    0.62197    0.56441    1.000
    N208     N        0.02030    0.51143    0.50586    1.000
    N209     N        0.98965    0.57965    0.53259    1.000
    Si210    Si       0.99299    0.73593    0.55989    1.000
    N211     N        0.03276    0.73434    0.58017    1.000
    Si212    Si       0.00357    0.68850    0.49702    1.000
    N213     N        0.02793    0.65305    0.49769    1.000
    N214     N        0.03009    0.72451    0.49695    1.000
    N215     N        0.03465    0.60327    0.69625    1.000
    N216     N        0.00938    0.54518    0.66013    1.000
    Si217    Si       0.00322    0.58276    0.63954    1.000
    N218     N        0.04319    0.59549    0.62958    1.000
    Si219    Si       0.00922    0.63754    0.68250    1.000
    N220     N        0.02980    0.67153    0.67298    1.000
    Si221    Si       0.00779    0.73148    0.73227    1.000
    N222     N        0.01292    0.52006    0.77678    1.000
    Si223    Si       0.00379    0.60723    0.84801    1.000
    Si224    Si       0.01225    0.56396    0.78165    1.000
    N225     N        0.01933    0.57307    0.82673    1.000
    Si226    Si       0.02480    0.53732    0.84987    1.000
    N227     N        0.02657    0.64204    0.76409    1.000
    Si228    Si       0.01571    0.68360    0.85848    1.000
    N229     N        0.02294    0.64590    0.83468    1.000
    Si230    Si       0.02204    0.73042    0.80719    1.000
    N231     N        0.01111    0.75253    0.77056    1.000
    N232     N        0.99260    0.71355    0.83564    1.000
    N233     N        0.04677    0.70008    0.79150    1.000
    Si234    Si       0.04670    0.65582    0.80004    1.000
    N235     N        0.03760    0.56301    0.94425    1.000
    N236     N        0.02033    0.60435    0.89076    1.000
    Si237    Si       0.99705    0.54878    0.95459    1.000
    N238     N        0.03669    0.62793    0.99400    1.000
    Si239    Si       0.04813    0.57385    0.90499    1.000
    N240     N        0.99039    0.50940    0.93410    1.000
    Si241    Si       0.03836    0.75192    0.87203    1.000
    Si242    Si       0.01676    0.64198    0.91964    1.000
    N243     N        0.01616    0.69247    0.97154    1.000
    N244     N        0.99444    0.66911    0.89396    1.000
    Si245    Si       0.00269    0.65215    0.98765    1.000
    N246     N        0.00220    0.75389    0.94402    1.000
    N247     N        0.04777    0.70671    0.87372    1.000
    N248     N        0.03268    0.86113    0.09637    1.000
    Si249    Si       0.00200    0.83500    0.11194    1.000
    N250     N        0.03224    0.81036    0.05334    1.000
    Si251    Si       0.03738    0.85122    0.05249    1.000
    Si252    Si       0.05183    0.78077    0.11887    1.000
    N253     N        0.00698    0.88241    0.04471    1.000
    N254     N        0.01512    0.94886    0.05501    1.000
    Si255    Si       0.02306    0.90898    0.07741    1.000
    N256     N        0.00500    0.92577    0.11239    1.000
    Si257    Si       0.00545    0.89580    0.99918    1.000
    N258     N        0.00977    0.79329    0.12285    1.000
    N259     N        0.03869    0.76525    0.21548    1.000
    N260     N        0.01370    0.83607    0.19804    1.000
    Si261    Si       0.00689    0.79619    0.21222    1.000
    Si262    Si       0.99759    0.75895    0.14778    1.000
    N263     N        0.99947    0.90387    0.18523    1.000
    Si264    Si       0.02444    0.91869    0.15262    1.000
    Si265    Si       0.02560    0.81173    0.28980    1.000
    N266     N        0.01332    0.79104    0.32521    1.000
    N267     N        0.03344    0.85419    0.29467    1.000
    N268     N        0.00132    0.78976    0.25780    1.000
    Si269    Si       0.99379    0.80109    0.36150    1.000
    Si270    Si       0.99822    0.87912    0.29016    1.000
    Si271    Si       0.03433    0.76122    0.25935    1.000
    N272     N        0.99517    0.84440    0.36224    1.000
    N273     N        0.03099    0.95585    0.33653    1.000
    N274     N        0.00522    0.90602    0.25618    1.000
    N275     N        0.02971    0.00183    0.28226    1.000
    Si276    Si       0.99634    0.88610    0.36164    1.000
    Si277    Si       0.98698    0.94706    0.32725    1.000
    N278     N        0.01482    0.78373    0.39427    1.000
    N279     N        0.03220    0.77489    0.45989    1.000
    Si280    Si       0.00679    0.84494    0.46487    1.000
    N281     N        0.03947    0.84005    0.43720    1.000
    Si282    Si       0.00270    0.76877    0.49215    1.000
    N283     N        0.02248    0.87790    0.48911    1.000
    N284     N        0.99179    0.81433    0.49399    1.000
    Si285    Si       0.04267    0.79940    0.42508    1.000
    Si286    Si       0.01054    0.97303    0.46070    1.000
    N287     N        0.03121    0.89906    0.38236    1.000
    N288     N        0.00175    0.99936    0.42896    1.000
    Si289    Si       0.02514    0.86678    0.57190    1.000
    Si290    Si       0.01507    0.81175    0.53155    1.000
    N291     N        0.99756    0.83667    0.55981    1.000
    N292     N        0.00575    0.76951    0.53504    1.000
    N293     N        0.01621    0.93795    0.52769    1.000
    N294     N        0.00183    0.89877    0.58884    1.000
    Si295    Si       0.99621    0.97699    0.53383    1.000
    Si296    Si       0.01774    0.93086    0.61217    1.000
    Si297    Si       0.99606    0.91124    0.49796    1.000
    N298     N        0.99375    0.00780    0.56621    1.000
    N299     N        0.00635    0.99762    0.49764    1.000
    Si300    Si       0.00345    0.85860    0.73544    1.000
    N301     N        0.02433    0.80461    0.64855    1.000
    N302     N        0.02677    0.86203    0.69950    1.000
    Si303    Si       0.03457    0.77415    0.67804    1.000
    N304     N        0.00012    0.75612    0.69811    1.000
    N305     N        0.02649    0.99497    0.67593    1.000
    N306     N        0.03249    0.91684    0.65023    1.000
    N307     N        0.98972    0.96209    0.62573    1.000
    Si308    Si       0.04313    0.95379    0.67397    1.000
    N309     N        0.00219    0.99044    0.73917    1.000
    Si310    Si       0.00801    0.89003    0.67240    1.000
    Si311    Si       0.01920    0.95208    0.74221    1.000
    Si312    Si       0.01288    0.79556    0.78203    1.000
    N313     N        0.02874    0.87339    0.76581    1.000
    N314     N        0.99402    0.81917    0.75021    1.000
    N315     N        0.04484    0.76076    0.82894    1.000
    Si316    Si       0.04562    0.98468    0.81154    1.000
    N317     N        0.03580    0.95029    0.78393    1.000
    N318     N        0.02707    0.98973    0.84967    1.000
    Si319    Si       0.01670    0.90929    0.78907    1.000
    Si320    Si       0.00361    0.91128    0.86306    1.000
    N321     N        0.99082    0.85969    0.97949    1.000
    N322     N        0.99713    0.76887    0.87661    1.000
    Si323    Si       0.01527    0.84088    0.95023    1.000
    Si324    Si       0.04144    0.76866    0.94821    1.000
    N325     N        0.04311    0.91169    0.87414    1.000
    N326     N        0.02849    0.99111    0.98377    1.000
    Si327    Si       0.04591    0.90283    0.91584    1.000
    Si328    Si       0.01746    0.96833    0.94745    1.000
    N329     N        0.01450    0.92713    0.93487    1.000
    N330     N        0.04997    0.98381    0.92175    1.000
    N331     N        0.07761    0.09434    0.03284    1.000
    Si332    Si       0.05826    0.02951    0.08361    1.000
    N333     N        0.10221    0.03720    0.08825    1.000
    Si334    Si       0.06161    0.00847    0.00559    1.000
    Si335    Si       0.07998    0.13209    0.11394    1.000
    Si336    Si       0.07128    0.19658    0.01036    1.000
    N337     N        0.05157    0.20705    0.04996    1.000
    N338     N        0.10955    0.21876    0.01848    1.000
    N339     N        0.04994    0.13854    0.08283    1.000
    N340     N        0.09055    0.05495    0.19180    1.000
    N341     N        0.07626    0.11161    0.15094    1.000
    N342     N        0.06982    0.11686    0.22619    1.000
    Si343    Si       0.04967    0.12253    0.18504    1.000
    Si344    Si       0.04940    0.04592    0.18070    1.000
    N345     N        0.09606    0.01060    0.24614    1.000
    N346     N        0.07431    0.22680    0.16809    1.000
    Si347    Si       0.06122    0.18986    0.14720    1.000
    N348     N        0.09360    0.17229    0.12326    1.000
    Si349    Si       0.07560    0.10946    0.31399    1.000
    N350     N        0.08494    0.08252    0.34828    1.000
    N351     N        0.06092    0.01397    0.35222    1.000
    N352     N        0.09858    0.09222    0.28109    1.000
    Si353    Si       0.05247    0.05675    0.36187    1.000
    Si354    Si       0.04791    0.13738    0.25732    1.000
    N355     N        0.09256    0.14839    0.31997    1.000
    N356     N        0.07298    0.21691    0.35490    1.000
    N357     N        0.06834    0.17495    0.26552    1.000
    N358     N        0.07835    0.24717    0.26352    1.000
    Si359    Si       0.09427    0.17854    0.35374    1.000
    Si360    Si       0.04863    0.21282    0.26050    1.000
    N361     N        0.09157    0.01936    0.41855    1.000
    Si362    Si       0.06629    0.05292    0.43279    1.000
    N363     N        0.08462    0.09100    0.43154    1.000
    N364     N        0.05529    0.04477    0.47414    1.000
    Si365    Si       0.09234    0.12553    0.41028    1.000
    Si366    Si       0.06601    0.13335    0.48505    1.000
    N367     N        0.07577    0.15952    0.38689    1.000
    Si368    Si       0.06203    0.24582    0.45752    1.000
    N369     N        0.06802    0.21969    0.42421    1.000
    N370     N        0.08426    0.15355    0.44887    1.000
    Si371    Si       0.08368    0.24075    0.39021    1.000
    Si372    Si       0.05644    0.17714    0.42217    1.000
    N373     N        0.04309    0.23258    0.49305    1.000
    Si374    Si       0.06880    0.03077    0.57706    1.000
    N375     N        0.07084    0.10018    0.51608    1.000
    Si376    Si       0.08105    0.05609    0.50942    1.000
    N377     N        0.06941    0.01974    0.53495    1.000
    Si378    Si       0.05532    0.10716    0.55708    1.000
    N379     N        0.05368    0.07202    0.58465    1.000
    N380     N        0.05698    0.00833    0.61205    1.000
    N381     N        0.07328    0.13933    0.58301    1.000
    N382     N        0.08116    0.21041    0.55035    1.000
    N383     N        0.07072    0.16607    0.51355    1.000
    Si384    Si       0.09723    0.23495    0.58202    1.000
    N385     N        0.06882    0.25039    0.61280    1.000
    Si386    Si       0.05034    0.15654    0.61488    1.000
    Si387    Si       0.04915    0.20266    0.52016    1.000
    N388     N        0.09414    0.03311    0.67622    1.000
    N389     N        0.09457    0.08906    0.63751    1.000
    N390     N        0.08298    0.09002    0.70672    1.000
    Si391    Si       0.05761    0.01671    0.65534    1.000
    Si392    Si       0.05304    0.08291    0.62682    1.000
    Si393    Si       0.10597    0.25051    0.69226    1.000
    N394     N        0.06270    0.24678    0.68292    1.000
    Si395    Si       0.05075    0.22844    0.64574    1.000
    N396     N        0.07025    0.18799    0.63604    1.000
    N397     N        0.08435    0.11891    0.77881    1.000
    Si398    Si       0.09658    0.08153    0.80246    1.000
    N399     N        0.05280    0.08555    0.81511    1.000
    N400     N        0.08181    0.19944    0.78671    1.000
    Si401    Si       0.08873    0.23419    0.76219    1.000
    N402     N        0.06096    0.18897    0.85528    1.000
    Si403    Si       0.09869    0.15933    0.77939    1.000
    N404     N        0.04990    0.24931    0.75056    1.000
    Si405    Si       0.04781    0.19609    0.81541    1.000
    Si406    Si       0.06911    0.22979    0.86866    1.000
    N407     N        0.05713    0.04412    0.86728    1.000
    Si408    Si       0.08624    0.08003    0.87264    1.000
    N409     N        0.06453    0.11698    0.88028    1.000
    N410     N        0.07164    0.10020    0.96232    1.000
    N411     N        0.09146    0.03790    0.99388    1.000
    Si412    Si       0.06848    0.07363    0.99553    1.000
    N413     N        0.05799    0.21662    0.97385    1.000
    N414     N        0.06212    0.15698    0.99775    1.000
    N415     N        0.04583    0.22238    0.90596    1.000
    Si416    Si       0.06443    0.19935    0.93624    1.000
    Si417    Si       0.04493    0.15804    0.88271    1.000
    Si418    Si       0.07125    0.29896    0.10348    1.000
    Si419    Si       0.07185    0.34940    0.05230    1.000
    N420     N        0.08958    0.33833    0.08979    1.000
    N421     N        0.07573    0.26987    0.06960    1.000
    N422     N        0.09851    0.34062    0.02137    1.000
    N423     N        0.06340    0.39079    0.04060    1.000
    Si424    Si       0.08093    0.45885    0.06696    1.000
    N425     N        0.06450    0.49629    0.04691    1.000
    Si426    Si       0.07985    0.41537    0.00893    1.000
    Si427    Si       0.07637    0.48156    0.00600    1.000
    N428     N        0.10213    0.44801    0.02856    1.000
    N429     N        0.08512    0.33643    0.17428    1.000
    Si430    Si       0.06323    0.31978    0.20959    1.000
    N431     N        0.10011    0.28207    0.12994    1.000
    Si432    Si       0.08086    0.37859    0.17241    1.000
    N433     N        0.09110    0.30963    0.24141    1.000
    N434     N        0.09578    0.39319    0.13425    1.000
    Si435    Si       0.07735    0.48157    0.21400    1.000
    N436     N        0.05238    0.47984    0.17906    1.000
    Si437    Si       0.07890    0.28886    0.27801    1.000
    Si438    Si       0.09468    0.33444    0.33747    1.000
    N439     N        0.05181    0.33408    0.34765    1.000
    N440     N        0.10563    0.37593    0.33334    1.000
    Si441    Si       0.07177    0.47657    0.29076    1.000
    N442     N        0.07436    0.43258    0.29389    1.000
    Si443    Si       0.08054    0.48928    0.35048    1.000
    N444     N        0.08707    0.44764    0.35891    1.000
    Si445    Si       0.09917    0.41871    0.32603    1.000
    N446     N        0.05461    0.47905    0.25009    1.000
    N447     N        0.10479    0.49537    0.31396    1.000
    N448     N        0.07201    0.28197    0.38894    1.000
    N449     N        0.05778    0.34075    0.42504    1.000
    Si450    Si       0.09000    0.31949    0.40642    1.000
    N451     N        0.07801    0.38107    0.47961    1.000
    Si452    Si       0.05572    0.38139    0.43935    1.000
    Si453    Si       0.09892    0.50259    0.42522    1.000
    Si454    Si       0.10136    0.48098    0.49159    1.000
    N455     N        0.08461    0.41090    0.42568    1.000
    N456     N        0.07363    0.49030    0.45953    1.000
    Si457    Si       0.08862    0.30441    0.55105    1.000
    N458     N        0.06538    0.36847    0.55309    1.000
    N459     N        0.08372    0.31672    0.50889    1.000
    Si460    Si       0.06459    0.35489    0.50991    1.000
    Si461    Si       0.10153    0.37405    0.57434    1.000
    Si462    Si       0.05226    0.29184    0.61133    1.000
    N463     N        0.04990    0.30352    0.56959    1.000
    N464     N        0.07879    0.49026    0.52760    1.000
    N465     N        0.09682    0.45827    0.59724    1.000
    N466     N        0.08781    0.39107    0.61341    1.000
    Si467    Si       0.05283    0.46302    0.60489    1.000
    N468     N        0.09505    0.36800    0.71777    1.000
    N469     N        0.07282    0.31556    0.64420    1.000
    Si470    Si       0.07087    0.34116    0.73981    1.000
    N471     N        0.05084    0.31212    0.71084    1.000
    N472     N        0.04591    0.37995    0.67073    1.000
    N473     N        0.06740    0.42912    0.72709    1.000
    Si474    Si       0.04777    0.38978    0.62633    1.000
    N475     N        0.08663    0.43544    0.66851    1.000
    Si476    Si       0.07153    0.46370    0.69949    1.000
    Si477    Si       0.07287    0.40175    0.69614    1.000
    N478     N        0.04999    0.49649    0.62971    1.000
    Si479    Si       0.10446    0.42828    0.62896    1.000
    N480     N        0.09827    0.49334    0.71522    1.000
    N481     N        0.05928    0.31211    0.81804    1.000
    N482     N        0.09786    0.33286    0.77424    1.000
    Si483    Si       0.06105    0.35279    0.80227    1.000
    Si484    Si       0.10125    0.30211    0.80403    1.000
    Si485    Si       0.08338    0.30482    0.87558    1.000
    N486     N        0.07838    0.39470    0.79961    1.000
    Si487    Si       0.08087    0.42650    0.76776    1.000
    N488     N        0.05902    0.43455    0.85545    1.000
    N489     N        0.05110    0.44989    0.78880    1.000
    N490     N        0.05291    0.27269    0.86985    1.000
    N491     N        0.07385    0.33628    0.95498    1.000
    N492     N        0.07924    0.34840    0.88267    1.000
    Si493    Si       0.05887    0.25975    0.97872    1.000
    Si494    Si       0.10427    0.35332    0.98184    1.000
    N495     N        0.10210    0.27360    0.97811    1.000
    Si496    Si       0.10399    0.30350    0.94693    1.000
    N497     N        0.10941    0.48036    0.88076    1.000
    N498     N        0.10049    0.39646    0.97579    1.000
    Si499    Si       0.10005    0.43886    0.87196    1.000
    Si500    Si       0.07546    0.50182    0.89906    1.000
    N501     N        0.05220    0.44389    0.99521    1.000
    N502     N        0.06868    0.55374    0.09342    1.000
    N503     N        0.08325    0.62208    0.04386    1.000
    N504     N        0.06373    0.56677    0.00522    1.000
    Si505    Si       0.04867    0.60267    0.02547    1.000
    Si506    Si       0.07541    0.66703    0.04439    1.000
    N507     N        0.07634    0.67894    0.00217    1.000
    Si508    Si       0.10369    0.73231    0.08563    1.000
    N509     N        0.09978    0.69776    0.05997    1.000
    N510     N        0.06698    0.75954    0.08439    1.000
    Si511    Si       0.04802    0.71246    0.99300    1.000
    N512     N        0.05737    0.61229    0.12357    1.000
    Si513    Si       0.09851    0.61169    0.13711    1.000
    Si514    Si       0.07932    0.55721    0.19002    1.000
    N515     N        0.09501    0.52197    0.20730    1.000
    N516     N        0.07049    0.58356    0.22261    1.000
    N517     N        0.04757    0.54877    0.16168    1.000
    N518     N        0.10382    0.65110    0.15583    1.000
    Si519    Si       0.06648    0.74998    0.18748    1.000
    N520     N        0.07830    0.70762    0.18627    1.000
    Si521    Si       0.08621    0.66545    0.19258    1.000
    Si522    Si       0.06378    0.70765    0.14464    1.000
    N523     N        0.10020    0.71121    0.12284    1.000
    N524     N        0.05961    0.54702    0.28384    1.000
    Si525    Si       0.06062    0.58126    0.35581    1.000
    N526     N        0.05985    0.62119    0.33759    1.000
    N527     N        0.09814    0.56503    0.33596    1.000
    Si528    Si       0.10255    0.53809    0.29963    1.000
    N529     N        0.07183    0.67257    0.27131    1.000
    Si530    Si       0.07482    0.70897    0.29552    1.000
    Si531    Si       0.08142    0.65255    0.35620    1.000
    N532     N        0.09144    0.69028    0.33452    1.000
    Si533    Si       0.07045    0.71462    0.36623    1.000
    N534     N        0.07279    0.74995    0.34020    1.000
    Si535    Si       0.06727    0.56165    0.43307    1.000
    N536     N        0.07987    0.57876    0.39432    1.000
    N537     N        0.05975    0.59629    0.46100    1.000
    Si538    Si       0.09333    0.59613    0.48843    1.000
    N539     N        0.10581    0.54386    0.44233    1.000
    N540     N        0.08809    0.51356    0.38522    1.000
    N541     N        0.07807    0.66477    0.44651    1.000
    N542     N        0.05147    0.67467    0.37869    1.000
    N543     N        0.09447    0.72137    0.40056    1.000
    N544     N        0.09304    0.74282    0.46519    1.000
    Si545    Si       0.05081    0.73625    0.46142    1.000
    Si546    Si       0.04537    0.67635    0.42223    1.000
    Si547    Si       0.07242    0.58909    0.54713    1.000
    Si548    Si       0.09045    0.52756    0.54152    1.000
    N549     N        0.08749    0.62450    0.52093    1.000
    Si550    Si       0.06526    0.61990    0.60268    1.000
    N551     N        0.09746    0.59399    0.58324    1.000
    N552     N        0.10124    0.56037    0.51154    1.000
    N553     N        0.05199    0.55110    0.55170    1.000
    Si554    Si       0.06011    0.74437    0.61219    1.000
    N555     N        0.06886    0.68769    0.54457    1.000
    N556     N        0.08149    0.66103    0.60811    1.000
    Si557    Si       0.09728    0.68876    0.57965    1.000
    N558     N        0.10015    0.72755    0.59953    1.000
    Si559    Si       0.05007    0.72877    0.53830    1.000
    Si560    Si       0.05152    0.65152    0.53411    1.000
    Si561    Si       0.04378    0.51937    0.66533    1.000
    N562     N        0.07591    0.54776    0.67697    1.000
    Si563    Si       0.06455    0.58894    0.66692    1.000
    N564     N        0.09342    0.61940    0.66138    1.000
    N565     N        0.08859    0.62287    0.73455    1.000
    Si566    Si       0.04709    0.61160    0.73888    1.000
    Si567    Si       0.05613    0.70575    0.68342    1.000
    N568     N        0.09761    0.69124    0.67715    1.000
    N569     N        0.04751    0.72033    0.72239    1.000
    Si570    Si       0.10232    0.66086    0.64765    1.000
    N571     N        0.05199    0.73994    0.65632    1.000
    Si572    Si       0.08503    0.55322    0.76758    1.000
    N573     N        0.04872    0.57559    0.76117    1.000
    N574     N        0.08089    0.51052    0.77661    1.000
    N575     N        0.08921    0.64326    0.80366    1.000
    Si576    Si       0.07083    0.71706    0.75981    1.000
    N577     N        0.10647    0.51076    0.99221    1.000
    N578     N        0.05557    0.53820    0.88153    1.000
    N579     N        0.08839    0.59278    0.90306    1.000
    N580     N        0.09350    0.52763    0.93079    1.000
    Si581    Si       0.06905    0.54175    0.97114    1.000
    Si582    Si       0.09073    0.69923    0.87568    1.000
    Si583    Si       0.09185    0.63450    0.90676    1.000
    N584     N        0.06773    0.73884    0.96421    1.000
    Si585    Si       0.09655    0.74253    0.93055    1.000
    Si586    Si       0.07480    0.64361    0.97549    1.000
    N587     N        0.05917    0.64787    0.93308    1.000
    N588     N        0.09562    0.65608    0.87007    1.000
    N589     N        0.08788    0.79150    0.02432    1.000
    N590     N        0.07910    0.85873    0.04310    1.000
    Si591    Si       0.05421    0.77450    0.04520    1.000
    Si592    Si       0.09823    0.83512    0.01471    1.000
    N593     N        0.10624    0.87445    0.10573    1.000
    N594     N        0.06760    0.92157    0.07179    1.000
    N595     N        0.08064    0.96889    0.02125    1.000
    N596     N        0.06722    0.98392    0.09583    1.000
    Si597    Si       0.05569    0.96293    0.05887    1.000
    Si598    Si       0.09994    0.89176    0.06606    1.000
    Si599    Si       0.06937    0.86031    0.12098    1.000
    N600     N        0.07337    0.81678    0.13061    1.000
    N601     N        0.08441    0.84177    0.19266    1.000
    N602     N        0.10337    0.77150    0.18132    1.000
    Si603    Si       0.10008    0.81162    0.16489    1.000
    Si604    Si       0.09930    0.86982    0.22068    1.000
    Si605    Si       0.04771    0.86423    0.19075    1.000
    N606     N        0.05245    0.88432    0.15103    1.000
    Si607    Si       0.05411    0.99881    0.24378    1.000
    N608     N        0.05110    0.95801    0.23240    1.000
    N609     N        0.05144    0.95087    0.16156    1.000
    Si610    Si       0.07163    0.93922    0.19937    1.000
    N611     N        0.06530    0.89860    0.21586    1.000
    Si612    Si       0.06391    0.98467    0.13858    1.000
    Si613    Si       0.07521    0.86326    0.29261    1.000
    N614     N        0.06189    0.79290    0.27308    1.000
    N615     N        0.09311    0.84652    0.25699    1.000
    Si616    Si       0.10208    0.80378    0.26325    1.000
    N617     N        0.07087    0.90695    0.28615    1.000
    N618     N        0.09021    0.97333    0.30261    1.000
    N619     N        0.09567    0.91930    0.35359    1.000
    Si620    Si       0.05170    0.98824    0.31797    1.000
    Si621    Si       0.05373    0.93289    0.36529    1.000
    Si622    Si       0.04726    0.91723    0.25259    1.000
    N623     N        0.09974    0.86733    0.49203    1.000
    Si624    Si       0.05186    0.87475    0.41212    1.000
    N625     N        0.08547    0.78871    0.41520    1.000
    N626     N        0.08028    0.85287    0.38643    1.000
    Si627    Si       0.07785    0.94687    0.43647    1.000
    Si628    Si       0.08467    0.99428    0.38279    1.000
    N629     N        0.05475    0.96634    0.46654    1.000
    N630     N        0.06208    0.96117    0.39797    1.000
    N631     N        0.07877    0.90226    0.43329    1.000
    Si632    Si       0.06006    0.86685    0.51054    1.000
    Si633    Si       0.09247    0.80235    0.54219    1.000
    N634     N        0.07693    0.78444    0.61042    1.000
    Si635    Si       0.09147    0.87316    0.57413    1.000
    N636     N        0.05690    0.85209    0.59856    1.000
    N637     N        0.05506    0.82531    0.52620    1.000
    N638     N        0.07884    0.76052    0.53391    1.000
    N639     N        0.05684    0.88771    0.54689    1.000
    N640     N        0.08365    0.95219    0.52705    1.000
    Si641    Si       0.07783    0.96874    0.60916    1.000
    Si642    Si       0.07222    0.98633    0.50257    1.000
    Si643    Si       0.05366    0.93111    0.54838    1.000
    N644     N        0.05068    0.94484    0.58833    1.000
    Si645    Si       0.06529    0.83992    0.69986    1.000
    Si646    Si       0.08792    0.77693    0.73221    1.000
    Si647    Si       0.05885    0.82140    0.62824    1.000
    N648     N        0.08354    0.83765    0.66036    1.000
    N649     N        0.08947    0.86474    0.72514    1.000
    N650     N        0.05805    0.79626    0.70901    1.000
    N651     N        0.04754    0.93499    0.71392    1.000
    N652     N        0.07872    0.96711    0.65236    1.000
    Si653    Si       0.08321    0.90771    0.72240    1.000
    Si654    Si       0.06355    0.85896    0.79053    1.000
    N655     N        0.09056    0.85781    0.85809    1.000
    Si656    Si       0.07449    0.78153    0.80352    1.000
    N657     N        0.05066    0.81579    0.79384    1.000
    N658     N        0.08245    0.75698    0.76868    1.000
    N659     N        0.06082    0.89863    0.81182    1.000
    Si660    Si       0.07882    0.89888    0.85223    1.000
    N661     N        0.08627    0.96823    0.81548    1.000
    Si662    Si       0.07605    0.93322    0.79298    1.000
    N663     N        0.09731    0.92633    0.75862    1.000
    N664     N        0.09301    0.85555    0.97743    1.000
    Si665    Si       0.07551    0.83370    0.94089    1.000
    N666     N        0.06101    0.76346    0.90833    1.000
    N667     N        0.04564    0.86330    0.92940    1.000
    N668     N        0.04444    0.80938    0.95707    1.000
    N669     N        0.08179    0.91986    0.93343    1.000
    Si670    Si       0.05521    0.00236    0.88314    1.000
    Si671    Si       0.08396    0.89808    0.97118    1.000
    Si672    Si       0.08933    0.96216    0.92198    1.000
    N673     N        0.09336    0.98177    0.88099    1.000
    N674     N        0.04653    0.90270    0.99157    1.000
    Si675    Si       0.12545    0.07056    0.10128    1.000
    N676     N        0.14895    0.11055    0.03510    1.000
    N677     N        0.16146    0.04298    0.02241    1.000
    Si678    Si       0.11004    0.12066    0.05210    1.000
    N679     N        0.10817    0.10802    0.09292    1.000
    N680     N        0.11713    0.16241    0.05596    1.000
    Si681    Si       0.13730    0.18427    0.02538    1.000
    Si682    Si       0.12370    0.18236    0.09402    1.000
    N683     N        0.12004    0.22546    0.08754    1.000
    Si684    Si       0.13285    0.25157    0.99763    1.000
    Si685    Si       0.13342    0.25514    0.11578    1.000
    N686     N        0.16427    0.18231    0.11063    1.000
    Si687    Si       0.10737    0.24820    0.05223    1.000
    N688     N        0.13602    0.07343    0.14240    1.000
    N689     N        0.13886    0.06998    0.24052    1.000
    N690     N        0.13012    0.11747    0.19512    1.000
    Si691    Si       0.11241    0.11008    0.23609    1.000
    N692     N        0.14899    0.01636    0.19852    1.000
    Si693    Si       0.11907    0.03884    0.22103    1.000
    Si694    Si       0.10731    0.08894    0.17093    1.000
    N695     N        0.14168    0.22930    0.15067    1.000
    Si696    Si       0.11451    0.23641    0.18334    1.000
    N697     N        0.12865    0.21749    0.21957    1.000
    N698     N        0.12850    0.03181    0.30588    1.000
    Si699    Si       0.13570    0.06987    0.28599    1.000
    Si700    Si       0.12741    0.08890    0.35692    1.000
    N701     N        0.15159    0.09476    0.32102    1.000
    Si702    Si       0.14669    0.01976    0.34362    1.000
    N703     N        0.12506    0.20540    0.29134    1.000
    N704     N        0.13593    0.18902    0.35449    1.000
    Si705    Si       0.15456    0.21167    0.32208    1.000
    N706     N        0.13436    0.14241    0.25622    1.000
    Si707    Si       0.12052    0.23343    0.26050    1.000
    N708     N        0.15208    0.25582    0.33287    1.000
    Si709    Si       0.10825    0.16510    0.28300    1.000
    N710     N        0.14977    0.05320    0.37017    1.000
    N711     N        0.16163    0.02361    0.43553    1.000
    N712     N        0.12973    0.11800    0.38911    1.000
    Si713    Si       0.15935    0.19127    0.39043    1.000
    N714     N        0.13638    0.19195    0.42790    1.000
    Si715    Si       0.13149    0.23359    0.44168    1.000
    N716     N        0.12646    0.24689    0.39854    1.000
    N717     N        0.15285    0.13233    0.45668    1.000
    Si718    Si       0.12476    0.16401    0.45793    1.000
    N719     N        0.12092    0.09857    0.57690    1.000
    N720     N        0.12253    0.05667    0.51738    1.000
    Si721    Si       0.14282    0.08437    0.54251    1.000
    Si722    Si       0.12461    0.07173    0.61132    1.000
    Si723    Si       0.14179    0.01908    0.51142    1.000
    N724     N        0.11229    0.03286    0.59095    1.000
    Si725    Si       0.11504    0.14016    0.58348    1.000
    N726     N        0.13429    0.16731    0.55721    1.000
    N727     N        0.13151    0.21485    0.60129    1.000
    Si728    Si       0.16248    0.17919    0.58855    1.000
    N729     N        0.13730    0.15401    0.61955    1.000
    Si730    Si       0.10751    0.18381    0.52905    1.000
    N731     N        0.13138    0.18971    0.49286    1.000
    Si732    Si       0.11292    0.07615    0.67436    1.000
    N733     N        0.14352    0.10836    0.68613    1.000
    N734     N        0.14513    0.04986    0.71524    1.000
    N735     N        0.14967    0.05866    0.64495    1.000
    Si736    Si       0.12826    0.01520    0.69477    1.000
    Si737    Si       0.10363    0.11358    0.73552    1.000
    Si738    Si       0.14821    0.14159    0.66017    1.000
    N739     N        0.12646    0.23102    0.66032    1.000
    N740     N        0.12054    0.17070    0.67727    1.000
    Si741    Si       0.14971    0.25057    0.62972    1.000
    N742     N        0.11323    0.22585    0.72701    1.000
    Si743    Si       0.12825    0.18634    0.71691    1.000
    Si744    Si       0.11375    0.19504    0.64128    1.000
    N745     N        0.10461    0.15720    0.73776    1.000
    Si746    Si       0.14006    0.02838    0.75423    1.000
    N747     N        0.11593    0.07917    0.84235    1.000
    Si748    Si       0.15858    0.07059    0.85047    1.000
    N749     N        0.11429    0.05253    0.77708    1.000
    N750     N        0.14563    0.10982    0.75258    1.000
    N751     N        0.16441    0.12179    0.84646    1.000
    N752     N        0.13848    0.16112    0.79598    1.000
    Si753    Si       0.15387    0.16278    0.83684    1.000
    N754     N        0.11283    0.23297    0.86855    1.000
    N755     N        0.15299    0.03272    0.87230    1.000
    Si756    Si       0.10793    0.09980    0.94143    1.000
    Si757    Si       0.13580    0.04459    0.98469    1.000
    Si758    Si       0.14763    0.05364    0.91005    1.000
    N759     N        0.13180    0.08675    0.97476    1.000
    N760     N        0.14858    0.03069    0.94559    1.000
    Si761    Si       0.15545    0.12053    0.99202    1.000
    N762     N        0.10722    0.07100    0.90979    1.000
    Si763    Si       0.15837    0.13145    0.89105    1.000
    N764     N        0.13325    0.13274    0.92675    1.000
    N765     N        0.10730    0.19684    0.93140    1.000
    N766     N        0.14085    0.16115    0.98908    1.000
    N767     N        0.15737    0.24734    0.90970    1.000
    Si768    Si       0.13544    0.21093    0.89777    1.000
    Si769    Si       0.13752    0.17059    0.94772    1.000
    N770     N        0.14058    0.17384    0.87627    1.000
    N771     N        0.14023    0.27021    0.03561    1.000
    Si772    Si       0.11893    0.36161    0.11531    1.000
    N773     N        0.16309    0.28106    0.09730    1.000
    N774     N        0.13794    0.39110    0.08929    1.000
    Si775    Si       0.14365    0.45843    0.03193    1.000
    Si776    Si       0.14055    0.49498    0.09124    1.000
    N777     N        0.14350    0.49701    0.04722    1.000
    N778     N        0.11220    0.46193    0.09744    1.000
    Si779    Si       0.12204    0.42273    0.11678    1.000
    N780     N        0.14167    0.33186    0.13890    1.000
    Si781    Si       0.13063    0.29788    0.22812    1.000
    N782     N        0.15199    0.33441    0.21585    1.000
    N783     N        0.11943    0.27876    0.19194    1.000
    Si784    Si       0.14087    0.37517    0.22328    1.000
    Si785    Si       0.11313    0.30700    0.16065    1.000
    Si786    Si       0.13036    0.42735    0.19209    1.000
    Si787    Si       0.13420    0.50376    0.20331    1.000
    N788     N        0.11775    0.46427    0.21139    1.000
    N789     N        0.14134    0.43807    0.15244    1.000
    N790     N        0.10461    0.39373    0.20519    1.000
    Si791    Si       0.16592    0.47444    0.14880    1.000
    Si792    Si       0.14704    0.28810    0.30359    1.000
    N793     N        0.14678    0.27197    0.26103    1.000
    Si794    Si       0.14055    0.37077    0.36222    1.000
    N795     N        0.10564    0.30289    0.30997    1.000
    N796     N        0.14458    0.37927    0.26579    1.000
    N797     N        0.13761    0.43347    0.31739    1.000
    Si798    Si       0.14488    0.47534    0.32126    1.000
    N799     N        0.16467    0.48238    0.35837    1.000
    Si800    Si       0.16167    0.40305    0.29862    1.000
    N801     N        0.11648    0.33230    0.37582    1.000
    Si802    Si       0.11142    0.29826    0.47987    1.000
    N803     N        0.11953    0.31615    0.44036    1.000
    Si804    Si       0.16046    0.32283    0.42751    1.000
    Si805    Si       0.16180    0.25880    0.37692    1.000
    N806     N        0.10290    0.25646    0.46496    1.000
    N807     N        0.12621    0.46920    0.41500    1.000
    Si808    Si       0.10704    0.40840    0.46411    1.000
    Si809    Si       0.10486    0.43521    0.39673    1.000
    N810     N        0.13627    0.40755    0.38573    1.000
    N811     N        0.13589    0.50571    0.49402    1.000
    N812     N        0.14561    0.39338    0.45574    1.000
    Si813    Si       0.16700    0.39538    0.41790    1.000
    N814     N        0.11557    0.44081    0.49223    1.000
    Si815    Si       0.14796    0.31576    0.58824    1.000
    Si816    Si       0.15145    0.26627    0.53993    1.000
    N817     N        0.14660    0.29269    0.50526    1.000
    N818     N        0.11066    0.26700    0.55704    1.000
    N819     N        0.11106    0.33128    0.57487    1.000
    Si820    Si       0.13733    0.43307    0.52979    1.000
    N821     N        0.12932    0.39903    0.55687    1.000
    N822     N        0.15042    0.46927    0.55265    1.000
    Si823    Si       0.12662    0.48623    0.58753    1.000
    N824     N        0.13684    0.29234    0.62264    1.000
    N825     N        0.13628    0.35141    0.66049    1.000
    N826     N        0.15803    0.33610    0.72939    1.000
    Si827    Si       0.11497    0.31387    0.65513    1.000
    N828     N        0.12665    0.28887    0.69121    1.000
    Si829    Si       0.13641    0.36300    0.70358    1.000
    Si830    Si       0.16494    0.29697    0.71309    1.000
    N831     N        0.14571    0.49221    0.62804    1.000
    N832     N        0.14764    0.42444    0.63302    1.000
    N833     N        0.15619    0.40025    0.69463    1.000
    Si834    Si       0.15971    0.38703    0.65137    1.000
    N835     N        0.12916    0.36217    0.84278    1.000
    Si836    Si       0.14154    0.34619    0.77036    1.000
    Si837    Si       0.15415    0.32504    0.83923    1.000
    N838     N        0.15273    0.31307    0.79552    1.000
    Si839    Si       0.15475    0.27137    0.78311    1.000
    N840     N        0.11467    0.29808    0.84549    1.000
    N841     N        0.11153    0.26495    0.78418    1.000
    N842     N        0.14505    0.38794    0.77809    1.000
    Si843    Si       0.12115    0.39575    0.81483    1.000
    N844     N        0.12881    0.42875    0.84114    1.000
    N845     N        0.11868    0.44682    0.76798    1.000
    Si846    Si       0.11212    0.48931    0.75771    1.000
    Si847    Si       0.16001    0.42816    0.77454    1.000
    N848     N        0.15076    0.50718    0.76451    1.000
    Si849    Si       0.13781    0.27076    0.87900    1.000
    N850     N        0.13592    0.33069    0.96205    1.000
    Si851    Si       0.11721    0.36906    0.88476    1.000
    N852     N        0.15560    0.35576    0.90074    1.000
    N853     N        0.10984    0.29260    0.90799    1.000
    Si854    Si       0.14763    0.50255    0.88676    1.000
    Si855    Si       0.12120    0.41761    0.94296    1.000
    Si856    Si       0.12052    0.49967    0.95169    1.000
    N857     N        0.16187    0.40269    0.95130    1.000
    N858     N        0.10879    0.40773    0.90295    1.000
    N859     N        0.11390    0.45810    0.95176    1.000
    N860     N        0.12477    0.56597    0.04126    1.000
    N861     N        0.13406    0.53615    0.10429    1.000
    N862     N        0.12337    0.60336    0.10183    1.000
    Si863    Si       0.13572    0.52952    0.01958    1.000
    Si864    Si       0.11857    0.60603    0.02603    1.000
    Si865    Si       0.11014    0.56568    0.08162    1.000
    N866     N        0.15472    0.62710    0.04293    1.000
    Si867    Si       0.15517    0.62749    0.08619    1.000
    N868     N        0.15505    0.66705    0.10472    1.000
    N869     N        0.15428    0.75351    0.01010    1.000
    N870     N        0.13647    0.75799    0.07007    1.000
    Si871    Si       0.13946    0.54850    0.14742    1.000
    N872     N        0.10923    0.57597    0.16037    1.000
    N873     N        0.14198    0.50671    0.16203    1.000
    Si874    Si       0.15093    0.68436    0.20865    1.000
    Si875    Si       0.12835    0.68155    0.13561    1.000
    N876     N        0.11834    0.65936    0.22255    1.000
    N877     N        0.15613    0.69393    0.16596    1.000
    N878     N        0.14091    0.72321    0.22516    1.000
    N879     N        0.13675    0.55079    0.27795    1.000
    Si880    Si       0.15244    0.59052    0.28609    1.000
    N881     N        0.11552    0.61609    0.28991    1.000
    N882     N        0.15749    0.59108    0.32823    1.000
    Si883    Si       0.11527    0.60398    0.33175    1.000
    N884     N        0.11843    0.63264    0.36316    1.000
    N885     N        0.14031    0.73813    0.34357    1.000
    N886     N        0.14299    0.67974    0.28891    1.000
    Si887    Si       0.14652    0.71954    0.26861    1.000
    Si888    Si       0.13724    0.69576    0.33304    1.000
    Si889    Si       0.11260    0.65351    0.26780    1.000
    N890     N        0.10751    0.73469    0.28562    1.000
    N891     N        0.15167    0.55015    0.38306    1.000
    Si892    Si       0.12736    0.54535    0.47879    1.000
    N893     N        0.12669    0.61062    0.46694    1.000
    N894     N        0.16583    0.56426    0.48116    1.000
    Si895    Si       0.10820    0.55067    0.37744    1.000
    N896     N        0.12836    0.67377    0.48832    1.000
    N897     N        0.15023    0.75363    0.41661    1.000
    Si898    Si       0.15810    0.64340    0.38164    1.000
    Si899    Si       0.11709    0.65170    0.45244    1.000
    N900     N        0.14395    0.65833    0.41969    1.000
    Si901    Si       0.10864    0.75289    0.42496    1.000
    Si902    Si       0.12985    0.56475    0.59104    1.000
    N903     N        0.15598    0.61828    0.52667    1.000
    N904     N        0.11487    0.52701    0.57632    1.000
    Si905    Si       0.12485    0.64703    0.52344    1.000
    N906     N        0.13271    0.67035    0.56061    1.000
    N907     N        0.14763    0.74041    0.51345    1.000
    Si908    Si       0.15566    0.53018    0.64483    1.000
    N909     N        0.15200    0.53174    0.68853    1.000
    N910     N        0.13503    0.56794    0.63361    1.000
    Si911    Si       0.12817    0.60465    0.72786    1.000
    Si912    Si       0.13551    0.60724    0.65293    1.000
    N913     N        0.15236    0.60403    0.69382    1.000
    Si914    Si       0.11064    0.53403    0.70307    1.000
    N915     N        0.11648    0.56157    0.73732    1.000
    N916     N        0.11771    0.74981    0.71157    1.000
    N917     N        0.15481    0.75014    0.62916    1.000
    Si918    Si       0.12183    0.70706    0.71078    1.000
    N919     N        0.14396    0.65044    0.64076    1.000
    Si920    Si       0.13945    0.56383    0.83797    1.000
    N921     N        0.13920    0.60602    0.84531    1.000
    Si922    Si       0.15221    0.54994    0.77521    1.000
    N923     N        0.11351    0.56047    0.80010    1.000
    N924     N        0.14392    0.62962    0.75870    1.000
    N925     N        0.10209    0.69041    0.74715    1.000
    N926     N        0.15930    0.74763    0.81443    1.000
    N927     N        0.15129    0.67239    0.83094    1.000
    Si928    Si       0.11751    0.64211    0.83550    1.000
    Si929    Si       0.10645    0.64963    0.76343    1.000
    N930     N        0.10865    0.73131    0.85219    1.000
    N931     N        0.10780    0.61724    0.98392    1.000
    N932     N        0.13118    0.54184    0.87260    1.000
    Si933    Si       0.11523    0.55760    0.91026    1.000
    N934     N        0.14201    0.57344    0.94149    1.000
    Si935    Si       0.14196    0.61394    0.95653    1.000
    N936     N        0.15577    0.51021    0.92987    1.000
    Si937    Si       0.15987    0.74241    0.96805    1.000
    N938     N        0.12692    0.64234    0.92909    1.000
    N939     N        0.15560    0.69993    0.96135    1.000
    Si940    Si       0.14181    0.68168    0.92502    1.000
    N941     N        0.10721    0.70512    0.91435    1.000
    N942     N        0.14062    0.82066    0.01790    1.000
    Si943    Si       0.12951    0.78094    0.03172    1.000
    N944     N        0.14050    0.89609    0.04833    1.000
    N945     N        0.14935    0.98714    0.08415    1.000
    Si946    Si       0.15276    0.90429    0.00645    1.000
    N947     N        0.14813    0.97839    0.01645    1.000
    Si948    Si       0.11004    0.99506    0.09897    1.000
    Si949    Si       0.16263    0.00555    0.04682    1.000
    Si950    Si       0.11416    0.96058    0.99642    1.000
    Si951    Si       0.14414    0.85983    0.12313    1.000
    Si952    Si       0.13837    0.75988    0.20378    1.000
    N953     N        0.13829    0.82357    0.14559    1.000
    N954     N        0.13255    0.78908    0.23648    1.000
    N955     N        0.13747    0.88554    0.21392    1.000
    N956     N        0.16879    0.76380    0.17196    1.000
    N957     N        0.11511    0.94922    0.19333    1.000
    Si958    Si       0.14001    0.92737    0.22091    1.000
    Si959    Si       0.13387    0.98254    0.17366    1.000
    N960     N        0.10687    0.99184    0.14167    1.000
    N961     N        0.12674    0.79728    0.29995    1.000
    Si962    Si       0.13646    0.82658    0.33223    1.000
    Si963    Si       0.16045    0.78784    0.26943    1.000
    N964     N        0.12767    0.79950    0.36466    1.000
    Si965    Si       0.10976    0.76303    0.32208    1.000
    N966     N        0.14424    0.86230    0.36852    1.000
    N967     N        0.10285    0.85485    0.32176    1.000
    Si968    Si       0.10425    0.87687    0.35985    1.000
    N969     N        0.12665    0.93257    0.26107    1.000
    Si970    Si       0.13190    0.94518    0.35973    1.000
    N971     N        0.14537    0.93978    0.32001    1.000
    Si972    Si       0.11967    0.99867    0.27964    1.000
    N973     N        0.12351    0.98905    0.36410    1.000
    N974     N        0.16239    0.98642    0.27380    1.000
    Si975    Si       0.10340    0.93229    0.30087    1.000
    Si976    Si       0.15472    0.76508    0.37541    1.000
    N977     N        0.12571    0.84177    0.43354    1.000
    Si978    Si       0.11035    0.82275    0.39862    1.000
    Si979    Si       0.11122    0.87920    0.45103    1.000
    N980     N        0.11890    0.96223    0.43336    1.000
    Si981    Si       0.12421    0.00287    0.44173    1.000
    N982     N        0.14697    0.90480    0.45605    1.000
    N983     N        0.11160    0.00351    0.48464    1.000
    Si984    Si       0.15480    0.93869    0.43013    1.000
    N985     N        0.16155    0.93174    0.38830    1.000
    N986     N        0.13157    0.78446    0.56993    1.000
    Si987    Si       0.13872    0.82694    0.58552    1.000
    Si988    Si       0.13015    0.84330    0.51324    1.000
    N989     N        0.12165    0.80074    0.50594    1.000
    Si990    Si       0.11974    0.76667    0.60804    1.000
    N991     N        0.11082    0.84012    0.55393    1.000
    N992     N        0.12145    0.86782    0.60717    1.000
    Si993    Si       0.10978    0.75869    0.50199    1.000
    Si994    Si       0.13278    0.91429    0.60388    1.000
    N995     N        0.11639    0.90666    0.56184    1.000
    N996     N        0.14117    0.98737    0.54447    1.000
    N997     N        0.11794    0.95950    0.59544    1.000
    Si998    Si       0.12061    0.94786    0.54834    1.000
    Si999    Si       0.13687    0.99787    0.58749    1.000
    Si1000   Si       0.15804    0.89566    0.55046    1.000
    N1001    N        0.16219    0.92991    0.52143    1.000
    N1002    N        0.13768    0.81076    0.62627    1.000
    Si1003   Si       0.15064    0.77705    0.72457    1.000
    N1004    N        0.14509    0.86164    0.67830    1.000
    Si1005   Si       0.12150    0.84839    0.64484    1.000
    N1006    N        0.11890    0.80524    0.73868    1.000
    N1007    N        0.11757    0.92748    0.70287    1.000
    N1008    N        0.12127    0.99413    0.73335    1.000
    N1009    N        0.14463    0.98381    0.66669    1.000
    Si1010   Si       0.11581    0.95244    0.66616    1.000
    N1011    N        0.13621    0.92087    0.64612    1.000
    Si1012   Si       0.12717    0.95123    0.74152    1.000
    Si1013   Si       0.14978    0.90589    0.68326    1.000
    N1014    N        0.15299    0.85039    0.85299    1.000
    Si1015   Si       0.11847    0.83735    0.82872    1.000
    Si1016   Si       0.13451    0.76510    0.84720    1.000
    N1017    N        0.11041    0.79607    0.82440    1.000
    Si1018   Si       0.12193    0.84739    0.75065    1.000
    N1019    N        0.10767    0.85493    0.79083    1.000
    N1020    N        0.15354    0.97358    0.83376    1.000
    Si1021   Si       0.11393    0.96459    0.84780    1.000
    N1022    N        0.11795    0.92075    0.86177    1.000
    Si1023   Si       0.12440    0.85670    0.88910    1.000
    Si1024   Si       0.14472    0.79835    0.92155    1.000
    N1025    N        0.11230    0.82647    0.91789    1.000
    N1026    N        0.13305    0.76256    0.94024    1.000
    N1027    N        0.15672    0.78691    0.87900    1.000
    N1028    N        0.15691    0.96717    0.90226    1.000
    Si1029   Si       0.15374    0.92384    0.89066    1.000
    Si1030   Si       0.15393    0.98603    0.94035    1.000
    N1031    N        0.15318    0.88528    0.91161    1.000
    N1032    N        0.11641    0.91935    0.99241    1.000
    N1033    N        0.11448    0.97351    0.95563    1.000
    N1034    N        0.21417    0.08756    0.04464    1.000
    Si1035   Si       0.17202    0.07628    0.04740    1.000
    N1036    N        0.16607    0.06653    0.08922    1.000
    Si1037   Si       0.19028    0.19512    0.08008    1.000
    Si1038   Si       0.19738    0.22780    0.01852    1.000
    N1039    N        0.17264    0.20148    0.04176    1.000
    Si1040   Si       0.17864    0.07511    0.13023    1.000
    N1041    N        0.19306    0.10995    0.15107    1.000
    N1042    N        0.19035    0.11653    0.22103    1.000
    N1043    N        0.19399    0.03772    0.14837    1.000
    N1044    N        0.21223    0.05723    0.21484    1.000
    Si1045   Si       0.18188    0.07726    0.23827    1.000
    Si1046   Si       0.18992    0.02909    0.19059    1.000
    Si1047   Si       0.16931    0.12918    0.18210    1.000
    N1048    N        0.18851    0.24195    0.21207    1.000
    N1049    N        0.17169    0.17266    0.18265    1.000
    Si1050   Si       0.16991    0.20420    0.21347    1.000
    Si1051   Si       0.17280    0.19986    0.14836    1.000
    N1052    N        0.20969    0.22388    0.14766    1.000
    Si1053   Si       0.21001    0.25696    0.17801    1.000
    Si1054   Si       0.19421    0.09039    0.31173    1.000
    N1055    N        0.18469    0.06141    0.27926    1.000
    Si1056   Si       0.18963    0.01702    0.28785    1.000
    N1057    N        0.20416    0.12546    0.28557    1.000
    N1058    N        0.18770    0.01313    0.33156    1.000
    Si1059   Si       0.22462    0.02950    0.34996    1.000
    N1060    N        0.19636    0.20168    0.31889    1.000
    Si1061   Si       0.21303    0.20575    0.27668    1.000
    N1062    N        0.21327    0.24820    0.27557    1.000
    Si1063   Si       0.17839    0.14327    0.25416    1.000
    Si1064   Si       0.21938    0.21689    0.35128    1.000
    N1065    N        0.18524    0.18510    0.25005    1.000
    N1066    N        0.18853    0.08939    0.41491    1.000
    Si1067   Si       0.17686    0.04841    0.40415    1.000
    N1068    N        0.21363    0.02975    0.39116    1.000
    N1069    N        0.21899    0.10861    0.47592    1.000
    Si1070   Si       0.18316    0.13075    0.48742    1.000
    Si1071   Si       0.16424    0.12382    0.41380    1.000
    Si1072   Si       0.21539    0.23867    0.45294    1.000
    N1073    N        0.17243    0.23631    0.46043    1.000
    N1074    N        0.18804    0.22256    0.38310    1.000
    N1075    N        0.19721    0.17312    0.49368    1.000
    N1076    N        0.18694    0.15755    0.39840    1.000
    Si1077   Si       0.19690    0.03936    0.59103    1.000
    Si1078   Si       0.19447    0.10602    0.55643    1.000
    N1079    N        0.17583    0.06785    0.56599    1.000
    N1080    N        0.16762    0.11462    0.52357    1.000
    N1081    N        0.19163    0.14101    0.57870    1.000
    Si1082   Si       0.21880    0.22697    0.54045    1.000
    N1083    N        0.17729    0.23173    0.52924    1.000
    N1084    N        0.19990    0.20190    0.58733    1.000
    Si1085   Si       0.21872    0.23521    0.60591    1.000
    Si1086   Si       0.16976    0.20719    0.49396    1.000
    N1087    N        0.21382    0.06258    0.62354    1.000
    N1088    N        0.20635    0.08410    0.68896    1.000
    Si1089   Si       0.19058    0.05434    0.65961    1.000
    Si1090   Si       0.16704    0.08672    0.72057    1.000
    N1091    N        0.20191    0.01316    0.67086    1.000
    Si1092   Si       0.20373    0.17849    0.69687    1.000
    N1093    N        0.20889    0.22135    0.70050    1.000
    N1094    N        0.19188    0.24848    0.63715    1.000
    Si1095   Si       0.22188    0.25272    0.67088    1.000
    Si1096   Si       0.20663    0.23720    0.74267    1.000
    N1097    N        0.19013    0.15228    0.66381    1.000
    N1098    N        0.17034    0.17134    0.72658    1.000
    Si1099   Si       0.20121    0.04401    0.78568    1.000
    N1100    N        0.18969    0.06881    0.82179    1.000
    Si1101   Si       0.19827    0.11178    0.82192    1.000
    N1102    N        0.17349    0.01299    0.78012    1.000
    N1103    N        0.19966    0.06894    0.74998    1.000
    N1104    N        0.20255    0.13635    0.78598    1.000
    N1105    N        0.18282    0.24613    0.80687    1.000
    N1106    N        0.19134    0.18372    0.83392    1.000
    Si1107   Si       0.21385    0.21494    0.81051    1.000
    N1108    N        0.21652    0.20234    0.76883    1.000
    Si1109   Si       0.16656    0.14818    0.76435    1.000
    N1110    N        0.19460    0.11803    0.97659    1.000
    Si1111   Si       0.21427    0.09938    0.88878    1.000
    N1112    N        0.17196    0.08551    0.89496    1.000
    Si1113   Si       0.21533    0.12876    0.94276    1.000
    Si1114   Si       0.21437    0.18779    0.91838    1.000
    N1115    N        0.19980    0.14232    0.90412    1.000
    N1116    N        0.17152    0.24002    0.98396    1.000
    N1117    N        0.17250    0.19371    0.93311    1.000
    Si1118   Si       0.18149    0.23500    0.94149    1.000
    N1119    N        0.22323    0.23045    0.93372    1.000
    N1120    N        0.18863    0.32314    0.04308    1.000
    Si1121   Si       0.20010    0.34822    0.00873    1.000
    Si1122   Si       0.17490    0.28403    0.05608    1.000
    Si1123   Si       0.21640    0.33774    0.07284    1.000
    N1124    N        0.21224    0.32873    0.11443    1.000
    N1125    N        0.20606    0.38012    0.07388    1.000
    N1126    N        0.20832    0.25811    0.04943    1.000
    N1127    N        0.17458    0.38401    0.01597    1.000
    Si1128   Si       0.20070    0.46223    0.07426    1.000
    N1129    N        0.17865    0.48071    0.10689    1.000
    N1130    N        0.21488    0.48837    0.03997    1.000
    Si1131   Si       0.19401    0.49309    0.00186    1.000
    N1132    N        0.17035    0.43622    0.05916    1.000
    Si1133   Si       0.16800    0.39257    0.05807    1.000
    Si1134   Si       0.22648    0.40186    0.10346    1.000
    N1135    N        0.17139    0.45572    0.99717    1.000
    N1136    N        0.20792    0.30566    0.23344    1.000
    Si1137   Si       0.17606    0.30896    0.12968    1.000
    Si1138   Si       0.19210    0.32531    0.19747    1.000
    N1139    N        0.19133    0.29397    0.16588    1.000
    N1140    N        0.21462    0.35627    0.17541    1.000
    Si1141   Si       0.18917    0.26854    0.24621    1.000
    N1142    N        0.20453    0.41535    0.13862    1.000
    Si1143   Si       0.20816    0.50332    0.20894    1.000
    N1144    N        0.20038    0.47584    0.17513    1.000
    N1145    N        0.16621    0.40475    0.20278    1.000
    N1146    N        0.21840    0.47530    0.23979    1.000
    Si1147   Si       0.19814    0.39541    0.17765    1.000
    Si1148   Si       0.20306    0.34520    0.31534    1.000
    N1149    N        0.18740    0.30541    0.30889    1.000
    N1150    N        0.17152    0.37167    0.32940    1.000
    N1151    N        0.22406    0.36095    0.28012    1.000
    N1152    N        0.19839    0.42490    0.28610    1.000
    Si1153   Si       0.20699    0.46730    0.28084    1.000
    N1154    N        0.16923    0.48858    0.28767    1.000
    N1155    N        0.17643    0.29495    0.39649    1.000
    Si1156   Si       0.20435    0.32785    0.38592    1.000
    N1157    N        0.18821    0.32537    0.46091    1.000
    N1158    N        0.17632    0.35721    0.40142    1.000
    N1159    N        0.19620    0.47126    0.48531    1.000
    N1160    N        0.19336    0.42933    0.40593    1.000
    N1161    N        0.19103    0.49661    0.41391    1.000
    Si1162   Si       0.16697    0.46324    0.39821    1.000
    Si1163   Si       0.21308    0.49201    0.44963    1.000
    N1164    N        0.20938    0.39489    0.45876    1.000
    Si1165   Si       0.17558    0.38701    0.48602    1.000
    Si1166   Si       0.20650    0.36614    0.60254    1.000
    N1167    N        0.17675    0.29289    0.56634    1.000
    Si1168   Si       0.18389    0.31510    0.50348    1.000
    Si1169   Si       0.21835    0.29891    0.56568    1.000
    N1170    N        0.17290    0.35552    0.51734    1.000
    N1171    N        0.16681    0.35622    0.58853    1.000
    Si1172   Si       0.17195    0.38356    0.55370    1.000
    Si1173   Si       0.21488    0.43928    0.51081    1.000
    N1174    N        0.17757    0.41780    0.51701    1.000
    N1175    N        0.20776    0.40062    0.57537    1.000
    N1176    N        0.20597    0.46638    0.61401    1.000
    Si1177   Si       0.16981    0.49071    0.51890    1.000
    N1178    N        0.20172    0.28927    0.69153    1.000
    N1179    N        0.20243    0.37981    0.64307    1.000
    N1180    N        0.17290    0.26529    0.74415    1.000
    N1181    N        0.18333    0.44675    0.74381    1.000
    N1182    N        0.22111    0.39134    0.71219    1.000
    Si1183   Si       0.17353    0.45754    0.64195    1.000
    N1184    N        0.19852    0.45212    0.67882    1.000
    Si1185   Si       0.19012    0.42179    0.70897    1.000
    N1186    N        0.20788    0.50612    0.71672    1.000
    N1187    N        0.19233    0.34739    0.84249    1.000
    Si1188   Si       0.20800    0.27311    0.83206    1.000
    N1189    N        0.17617    0.28778    0.86008    1.000
    N1190    N        0.22400    0.30095    0.80178    1.000
    Si1191   Si       0.22450    0.34302    0.81603    1.000
    N1192    N        0.18666    0.43982    0.80946    1.000
    Si1193   Si       0.18941    0.48891    0.75205    1.000
    N1194    N        0.21321    0.49691    0.78816    1.000
    Si1195   Si       0.17106    0.43822    0.85013    1.000
    N1196    N        0.19703    0.40950    0.86986    1.000
    Si1197   Si       0.22667    0.46040    0.80819    1.000
    Si1198   Si       0.19175    0.36825    0.87978    1.000
    N1199    N        0.20189    0.34672    0.96517    1.000
    Si1200   Si       0.16446    0.35870    0.94512    1.000
    N1201    N        0.17753    0.47639    0.87016    1.000
    Si1202   Si       0.18398    0.41592    0.98568    1.000
    N1203    N        0.22124    0.49276    0.96652    1.000
    Si1204   Si       0.21932    0.48800    0.87980    1.000
    N1205    N        0.19146    0.60666    0.09834    1.000
    Si1206   Si       0.18824    0.62735    0.01551    1.000
    N1207    N        0.22052    0.60099    0.02783    1.000
    N1208    N        0.21768    0.54587    0.08560    1.000
    Si1209   Si       0.17208    0.74223    0.04992    1.000
    Si1210   Si       0.19307    0.69024    0.10006    1.000
    N1211    N        0.18917    0.70378    0.05921    1.000
    N1212    N        0.21738    0.65950    0.01316    1.000
    N1213    N        0.19798    0.72827    0.11895    1.000
    Si1214   Si       0.19943    0.56836    0.11804    1.000
    Si1215   Si       0.21463    0.57111    0.17998    1.000
    N1216    N        0.17977    0.56212    0.15556    1.000
    N1217    N        0.16858    0.51840    0.22371    1.000
    N1218    N        0.22645    0.59554    0.21638    1.000
    N1219    N        0.22175    0.66392    0.11891    1.000
    N1220    N        0.22016    0.70548    0.18318    1.000
    N1221    N        0.18338    0.67608    0.23343    1.000
    Si1222   Si       0.18711    0.72526    0.16036    1.000
    N1223    N        0.20602    0.54855    0.27874    1.000
    N1224    N        0.20462    0.54396    0.34871    1.000
    N1225    N        0.18083    0.61241    0.26415    1.000
    Si1226   Si       0.17972    0.57645    0.36310    1.000
    Si1227   Si       0.21658    0.58698    0.25792    1.000
    Si1228   Si       0.17158    0.52643    0.26531    1.000
    Si1229   Si       0.17936    0.65540    0.27158    1.000
    N1230    N        0.21172    0.66011    0.30172    1.000
    Si1231   Si       0.21026    0.68361    0.33937    1.000
    N1232    N        0.21430    0.72552    0.32785    1.000
    N1233    N        0.17727    0.74825    0.27799    1.000
    N1234    N        0.17006    0.67536    0.35496    1.000
    Si1235   Si       0.21930    0.74401    0.28840    1.000
    Si1236   Si       0.22204    0.74756    0.36551    1.000
    Si1237   Si       0.18268    0.51882    0.37620    1.000
    N1238    N        0.18862    0.61066    0.38694    1.000
    Si1239   Si       0.22607    0.61803    0.41003    1.000
    Si1240   Si       0.16647    0.60790    0.48527    1.000
    Si1241   Si       0.18906    0.74372    0.43388    1.000
    N1242    N        0.22115    0.72822    0.40693    1.000
    N1243    N        0.18093    0.70981    0.45856    1.000
    N1244    N        0.21579    0.66054    0.42130    1.000
    Si1245   Si       0.17952    0.67120    0.43980    1.000
    N1246    N        0.18858    0.64149    0.47167    1.000
    Si1247   Si       0.18763    0.59995    0.54983    1.000
    N1248    N        0.19781    0.52190    0.52956    1.000
    N1249    N        0.21379    0.58822    0.51612    1.000
    Si1250   Si       0.19923    0.57613    0.61520    1.000
    N1251    N        0.17262    0.57342    0.57994    1.000
    Si1252   Si       0.20104    0.54816    0.49707    1.000
    N1253    N        0.20322    0.63244    0.57413    1.000
    Si1254   Si       0.17674    0.66822    0.56414    1.000
    N1255    N        0.18673    0.69092    0.52852    1.000
    N1256    N        0.18420    0.68746    0.60376    1.000
    Si1257   Si       0.18690    0.72998    0.60699    1.000
    N1258    N        0.18910    0.74575    0.56735    1.000
    Si1259   Si       0.21655    0.72037    0.54134    1.000
    Si1260   Si       0.16080    0.70218    0.49540    1.000
    N1261    N        0.19677    0.53764    0.63438    1.000
    Si1262   Si       0.19549    0.61584    0.68374    1.000
    N1263    N        0.18931    0.60929    0.63912    1.000
    Si1264   Si       0.19061    0.54608    0.70812    1.000
    N1265    N        0.21775    0.57917    0.69386    1.000
    N1266    N        0.19778    0.64206    0.72151    1.000
    Si1267   Si       0.19242    0.72252    0.74329    1.000
    N1268    N        0.21240    0.66092    0.66593    1.000
    Si1269   Si       0.18850    0.65175    0.62917    1.000
    Si1270   Si       0.20301    0.68186    0.70260    1.000
    N1271    N        0.16626    0.70383    0.71239    1.000
    N1272    N        0.17444    0.55355    0.81444    1.000
    Si1273   Si       0.21286    0.53251    0.81221    1.000
    N1274    N        0.21115    0.62725    0.78399    1.000
    Si1275   Si       0.21699    0.58854    0.76248    1.000
    N1276    N        0.18391    0.56552    0.74800    1.000
    N1277    N        0.22659    0.52429    0.85132    1.000
    N1278    N        0.18339    0.69189    0.77387    1.000
    Si1279   Si       0.18245    0.64978    0.75938    1.000
    N1280    N        0.20606    0.70048    0.83999    1.000
    Si1281   Si       0.18727    0.66655    0.85951    1.000
    Si1282   Si       0.17154    0.70677    0.81296    1.000
    N1283    N        0.22036    0.63958    0.85224    1.000
    N1284    N        0.18216    0.61834    0.97256    1.000
    Si1285   Si       0.22234    0.60324    0.95403    1.000
    Si1286   Si       0.17231    0.54523    0.95236    1.000
    N1287    N        0.21262    0.55968    0.94990    1.000
    N1288    N        0.17001    0.52845    0.99298    1.000
    N1289    N        0.17169    0.67946    0.89558    1.000
    N1290    N        0.20072    0.75715    0.95664    1.000
    N1291    N        0.20576    0.77167    0.06109    1.000
    Si1292   Si       0.21313    0.83665    0.10341    1.000
    N1293    N        0.17497    0.85631    0.09255    1.000
    N1294    N        0.21053    0.81299    0.00059    1.000
    Si1295   Si       0.21605    0.76547    0.10287    1.000
    N1296    N        0.21738    0.88336    0.04601    1.000
    Si1297   Si       0.17977    0.89240    0.06981    1.000
    N1298    N        0.18967    0.92392    0.09874    1.000
    Si1299   Si       0.18118    0.96539    0.10995    1.000
    N1300    N        0.20751    0.99693    0.03006    1.000
    N1301    N        0.18887    0.92911    0.00496    1.000
    N1302    N        0.21365    0.99331    0.09893    1.000
    Si1303   Si       0.18740    0.97116    0.00223    1.000
    N1304    N        0.20260    0.79990    0.12318    1.000
    Si1305   Si       0.20832    0.83183    0.22530    1.000
    N1306    N        0.20358    0.87519    0.22485    1.000
    N1307    N        0.18640    0.82717    0.18884    1.000
    Si1308   Si       0.17447    0.80190    0.15441    1.000
    Si1309   Si       0.17138    0.86863    0.19349    1.000
    N1310    N        0.16699    0.88290    0.15316    1.000
    N1311    N        0.18144    0.93770    0.22018    1.000
    N1312    N        0.17090    0.96837    0.15248    1.000
    N1313    N        0.21923    0.99490    0.19773    1.000
    Si1314   Si       0.20350    0.90144    0.13489    1.000
    Si1315   Si       0.21228    0.91544    0.23973    1.000
    Si1316   Si       0.19949    0.95674    0.18474    1.000
    N1317    N        0.19133    0.81798    0.26275    1.000
    N1318    N        0.18258    0.82949    0.32894    1.000
    Si1319   Si       0.21245    0.82116    0.30029    1.000
    Si1320   Si       0.18583    0.85329    0.36569    1.000
    N1321    N        0.20191    0.89093    0.35091    1.000
    N1322    N        0.20019    0.91942    0.28116    1.000
    Si1323   Si       0.16493    0.94254    0.28250    1.000
    Si1324   Si       0.22021    0.89627    0.31237    1.000
    N1325    N        0.19604    0.77915    0.38014    1.000
    N1326    N        0.20486    0.78087    0.45121    1.000
    N1327    N        0.21061    0.83970    0.39966    1.000
    Si1328   Si       0.22120    0.78414    0.49108    1.000
    Si1329   Si       0.21789    0.80057    0.41556    1.000
    Si1330   Si       0.19401    0.00238    0.45896    1.000
    N1331    N        0.21530    0.90597    0.41879    1.000
    Si1332   Si       0.20356    0.92260    0.38032    1.000
    N1333    N        0.21468    0.90769    0.48496    1.000
    N1334    N        0.19180    0.96195    0.44729    1.000
    Si1335   Si       0.17236    0.90195    0.48824    1.000
    Si1336   Si       0.22519    0.93442    0.45076    1.000
    N1337    N        0.19261    0.80094    0.52078    1.000
    N1338    N        0.18077    0.83889    0.57766    1.000
    Si1339   Si       0.19701    0.84039    0.53703    1.000
    Si1340   Si       0.20620    0.83714    0.61360    1.000
    Si1341   Si       0.16560    0.77069    0.54057    1.000
    N1342    N        0.16489    0.86636    0.51829    1.000
    Si1343   Si       0.17948    0.96939    0.52862    1.000
    N1344    N        0.17402    0.91346    0.58651    1.000
    Si1345   Si       0.21060    0.93617    0.59144    1.000
    N1346    N        0.21222    0.96489    0.55914    1.000
    N1347    N        0.18153    0.00328    0.50039    1.000
    N1348    N        0.17450    0.00415    0.60582    1.000
    N1349    N        0.20708    0.79625    0.63212    1.000
    Si1350   Si       0.17318    0.83851    0.70225    1.000
    N1351    N        0.20577    0.87028    0.64433    1.000
    Si1352   Si       0.16778    0.78568    0.64823    1.000
    N1353    N        0.21430    0.85220    0.70661    1.000
    N1354    N        0.16758    0.79701    0.69174    1.000
    N1355    N        0.16452    0.85314    0.74265    1.000
    Si1356   Si       0.20085    0.93501    0.73399    1.000
    Si1357   Si       0.18157    0.98403    0.64446    1.000
    N1358    N        0.20588    0.95053    0.63305    1.000
    N1359    N        0.18821    0.92056    0.69506    1.000
    Si1360   Si       0.21203    0.91457    0.65792    1.000
    N1361    N        0.22294    0.97056    0.72936    1.000
    N1362    N        0.19428    0.80748    0.81728    1.000
    Si1363   Si       0.17816    0.81539    0.85491    1.000
    Si1364   Si       0.19057    0.77126    0.79281    1.000
    Si1365   Si       0.19170    0.87506    0.85877    1.000
    N1366    N        0.17979    0.76213    0.75093    1.000
    N1367    N        0.21629    0.87570    0.82278    1.000
    Si1368   Si       0.20793    0.86004    0.74935    1.000
    N1369    N        0.16585    0.94932    0.76003    1.000
    Si1370   Si       0.17809    0.97050    0.79620    1.000
    N1371    N        0.21284    0.94649    0.80852    1.000
    N1372    N        0.21716    0.90172    0.75620    1.000
    Si1373   Si       0.22070    0.95109    0.85320    1.000
    N1374    N        0.21236    0.99221    0.86525    1.000
    N1375    N        0.19290    0.91728    0.87080    1.000
    Si1376   Si       0.17095    0.99404    0.86998    1.000
    N1377    N        0.20881    0.83871    0.87542    1.000
    N1378    N        0.17418    0.81979    0.94533    1.000
    Si1379   Si       0.18050    0.86710    0.94019    1.000
    Si1380   Si       0.21060    0.79874    0.95821    1.000
    Si1381   Si       0.17142    0.82925    0.99137    1.000
    N1382    N        0.16836    0.87200    0.98102    1.000
    N1383    N        0.22389    0.87602    0.93095    1.000
    N1384    N        0.19176    0.98049    0.96042    1.000
    N1385    N        0.25591    0.03093    0.05114    1.000
    Si1386   Si       0.24714    0.07220    0.06610    1.000
    Si1387   Si       0.23265    0.02518    0.01090    1.000
    N1388    N        0.23214    0.07047    0.10772    1.000
    Si1389   Si       0.22494    0.10201    0.00436    1.000
    N1390    N        0.25199    0.13574    0.00777    1.000
    Si1391   Si       0.22723    0.02827    0.12140    1.000
    N1392    N        0.25786    0.13491    0.11434    1.000
    N1393    N        0.23132    0.20043    0.01099    1.000
    Si1394   Si       0.25141    0.20081    0.04976    1.000
    N1395    N        0.27393    0.23831    0.05372    1.000
    N1396    N        0.23092    0.19788    0.08651    1.000
    Si1397   Si       0.23590    0.10418    0.13453    1.000
    N1398    N        0.25776    0.11880    0.23626    1.000
    N1399    N        0.27628    0.02026    0.21701    1.000
    Si1400   Si       0.23544    0.02328    0.23032    1.000
    Si1401   Si       0.23151    0.09835    0.20724    1.000
    N1402    N        0.25589    0.09680    0.17174    1.000
    N1403    N        0.26105    0.01360    0.14251    1.000
    Si1404   Si       0.24436    0.21989    0.12319    1.000
    N1405    N        0.28093    0.19649    0.13439    1.000
    Si1406   Si       0.26800    0.08457    0.32850    1.000
    N1407    N        0.27166    0.12152    0.30353    1.000
    Si1408   Si       0.26568    0.01202    0.29532    1.000
    N1409    N        0.22926    0.01101    0.26947    1.000
    N1410    N        0.22631    0.06890    0.33420    1.000
    N1411    N        0.28200    0.05434    0.29884    1.000
    Si1412   Si       0.24591    0.14015    0.27373    1.000
    N1413    N        0.24927    0.18353    0.26853    1.000
    N1414    N        0.23270    0.25491    0.33887    1.000
    N1415    N        0.24656    0.18685    0.36921    1.000
    Si1416   Si       0.24684    0.03037    0.41757    1.000
    N1417    N        0.25778    0.07215    0.42103    1.000
    Si1418   Si       0.25773    0.02018    0.48885    1.000
    N1419    N        0.23099    0.02166    0.45713    1.000
    Si1420   Si       0.22550    0.09970    0.43314    1.000
    Si1421   Si       0.22693    0.17264    0.40622    1.000
    N1422    N        0.27649    0.17208    0.47589    1.000
    N1423    N        0.23436    0.20448    0.43440    1.000
    Si1424   Si       0.27582    0.21833    0.42762    1.000
    N1425    N        0.26431    0.24798    0.39998    1.000
    N1426    N        0.24510    0.13766    0.42386    1.000
    N1427    N        0.23317    0.23007    0.49599    1.000
    Si1428   Si       0.23882    0.18537    0.49795    1.000
    Si1429   Si       0.25244    0.06196    0.55496    1.000
    N1430    N        0.25844    0.05571    0.51211    1.000
    N1431    N        0.23431    0.10181    0.54265    1.000
    N1432    N        0.22974    0.02811    0.56755    1.000
    N1433    N        0.27507    0.07096    0.58973    1.000
    Si1434   Si       0.25057    0.09681    0.50277    1.000
    N1435    N        0.24239    0.18961    0.54191    1.000
    N1436    N        0.26765    0.15423    0.58580    1.000
    Si1437   Si       0.22740    0.16497    0.57466    1.000
    Si1438   Si       0.22140    0.12270    0.67130    1.000
    N1439    N        0.24990    0.02573    0.71871    1.000
    N1440    N        0.27391    0.04058    0.65574    1.000
    N1441    N        0.27316    0.08304    0.71756    1.000
    Si1442   Si       0.25601    0.07297    0.62884    1.000
    Si1443   Si       0.23087    0.06686    0.72075    1.000
    N1444    N        0.25629    0.11400    0.64490    1.000
    Si1445   Si       0.27952    0.17003    0.69159    1.000
    N1446    N        0.23947    0.15521    0.69843    1.000
    Si1447   Si       0.27261    0.24727    0.72140    1.000
    N1448    N        0.25015    0.23170    0.63597    1.000
    Si1449   Si       0.26339    0.09272    0.85014    1.000
    N1450    N        0.24048    0.02415    0.78868    1.000
    Si1451   Si       0.27506    0.03698    0.80912    1.000
    N1452    N        0.27707    0.07961    0.81255    1.000
    N1453    N        0.23192    0.12222    0.85106    1.000
    N1454    N        0.28071    0.01793    0.85030    1.000
    N1455    N        0.26698    0.13743    0.76106    1.000
    N1456    N        0.25334    0.17696    0.81600    1.000
    Si1457   Si       0.23572    0.16296    0.77533    1.000
    N1458    N        0.23821    0.24114    0.83496    1.000
    Si1459   Si       0.26616    0.22353    0.86480    1.000
    Si1460   Si       0.22771    0.16707    0.84979    1.000
    N1461    N        0.23838    0.06468    0.87118    1.000
    Si1462   Si       0.24129    0.02306    0.87580    1.000
    Si1463   Si       0.24801    0.05710    0.94571    1.000
    N1464    N        0.23989    0.02226    0.92094    1.000
    N1465    N        0.23759    0.09587    0.92463    1.000
    N1466    N        0.23161    0.06071    0.98626    1.000
    Si1467   Si       0.28273    0.10180    0.92245    1.000
    N1468    N        0.24014    0.19095    0.88176    1.000
    N1469    N        0.23662    0.16600    0.94866    1.000
    N1470    N        0.27574    0.25171    0.89470    1.000
    Si1471   Si       0.25469    0.17340    0.98666    1.000
    N1472    N        0.25191    0.31299    0.06392    1.000
    N1473    N        0.24381    0.36057    0.01636    1.000
    Si1474   Si       0.24584    0.26937    0.06864    1.000
    Si1475   Si       0.27498    0.34006    0.03822    1.000
    N1476    N        0.25910    0.37633    0.11846    1.000
    N1477    N        0.25524    0.26198    0.11209    1.000
    N1478    N        0.23669    0.44032    0.08687    1.000
    Si1479   Si       0.27406    0.45831    0.10167    1.000
    N1480    N        0.27594    0.49548    0.07841    1.000
    Si1481   Si       0.24088    0.34680    0.14199    1.000
    N1482    N        0.26551    0.34531    0.22550    1.000
    Si1483   Si       0.27361    0.27937    0.14848    1.000
    N1484    N        0.27569    0.32099    0.15382    1.000
    N1485    N        0.25452    0.26035    0.18490    1.000
    Si1486   Si       0.24721    0.44912    0.22303    1.000
    N1487    N        0.27826    0.47703    0.21189    1.000
    Si1488   Si       0.26080    0.38616    0.20838    1.000
    N1489    N        0.23349    0.41933    0.19322    1.000
    Si1490   Si       0.22704    0.44703    0.16077    1.000
    N1491    N        0.26094    0.46523    0.14357    1.000
    N1492    N        0.25588    0.30553    0.28999    1.000
    Si1493   Si       0.23911    0.32888    0.25434    1.000
    N1494    N        0.22637    0.34074    0.35103    1.000
    Si1495   Si       0.26700    0.33866    0.36708    1.000
    N1496    N        0.28004    0.29780    0.36452    1.000
    Si1497   Si       0.22314    0.27943    0.30595    1.000
    Si1498   Si       0.27148    0.25763    0.35707    1.000
    N1499    N        0.23348    0.48871    0.30772    1.000
    Si1500   Si       0.23464    0.40254    0.27970    1.000
    Si1501   Si       0.27125    0.46395    0.31272    1.000
    N1502    N        0.26095    0.41911    0.31056    1.000
    N1503    N        0.26391    0.41302    0.24603    1.000
    N1504    N        0.24133    0.27555    0.45447    1.000
    Si1505   Si       0.23007    0.31674    0.45397    1.000
    N1506    N        0.23859    0.32080    0.41126    1.000
    N1507    N        0.25622    0.34257    0.47790    1.000
    Si1508   Si       0.26918    0.28884    0.41019    1.000
    Si1509   Si       0.26498    0.25790    0.48681    1.000
    N1510    N        0.26704    0.40227    0.43365    1.000
    N1511    N        0.24307    0.46340    0.43813    1.000
    Si1512   Si       0.22920    0.42554    0.43072    1.000
    Si1513   Si       0.25084    0.38310    0.46990    1.000
    Si1514   Si       0.26435    0.32106    0.51593    1.000
    N1515    N        0.23274    0.33271    0.58952    1.000
    Si1516   Si       0.27521    0.33459    0.59050    1.000
    N1517    N        0.22214    0.31012    0.52270    1.000
    N1518    N        0.23081    0.25689    0.56889    1.000
    N1519    N        0.26540    0.43300    0.60063    1.000
    N1520    N        0.25213    0.41432    0.50110    1.000
    Si1521   Si       0.23380    0.50368    0.54607    1.000
    N1522    N        0.22573    0.46036    0.54649    1.000
    Si1523   Si       0.22439    0.44054    0.58518    1.000
    N1524    N        0.24980    0.33982    0.66854    1.000
    Si1525   Si       0.24010    0.30828    0.69681    1.000
    N1526    N        0.26306    0.27230    0.68699    1.000
    N1527    N        0.24489    0.32711    0.73583    1.000
    Si1528   Si       0.24199    0.37061    0.74430    1.000
    Si1529   Si       0.23501    0.38049    0.67185    1.000
    N1530    N        0.26061    0.45815    0.71945    1.000
    N1531    N        0.28019    0.39125    0.74081    1.000
    N1532    N        0.26721    0.40844    0.66696    1.000
    N1533    N        0.24913    0.50027    0.65904    1.000
    Si1534   Si       0.22394    0.50504    0.62419    1.000
    Si1535   Si       0.23224    0.47838    0.69405    1.000
    N1536    N        0.26116    0.34145    0.83966    1.000
    Si1537   Si       0.25248    0.29922    0.77005    1.000
    N1538    N        0.22906    0.37028    0.78407    1.000
    N1539    N        0.24301    0.26183    0.75023    1.000
    N1540    N        0.25480    0.43985    0.78359    1.000
    N1541    N        0.23898    0.45879    0.84832    1.000
    Si1542   Si       0.27753    0.46975    0.75834    1.000
    N1543    N        0.27395    0.40193    0.87237    1.000
    Si1544   Si       0.23685    0.34255    0.94204    1.000
    N1545    N        0.26994    0.36667    0.95627    1.000
    N1546    N        0.25371    0.30159    0.94425    1.000
    Si1547   Si       0.26361    0.35899    0.87883    1.000
    N1548    N        0.22759    0.35798    0.90317    1.000
    Si1549   Si       0.25740    0.25770    0.93294    1.000
    Si1550   Si       0.23691    0.42445    0.87474    1.000
    N1551    N        0.22758    0.41821    0.97837    1.000
    Si1552   Si       0.26051    0.39134    0.99026    1.000
    Si1553   Si       0.23633    0.45362    0.95247    1.000
    N1554    N        0.27911    0.45867    0.95185    1.000
    N1555    N        0.22963    0.45211    0.91005    1.000
    N1556    N        0.25853    0.60387    0.08346    1.000
    N1557    N        0.26607    0.54708    0.04317    1.000
    Si1558   Si       0.23663    0.57716    0.05931    1.000
    Si1559   Si       0.24058    0.51522    0.06330    1.000
    Si1560   Si       0.22953    0.62300    0.11032    1.000
    Si1561   Si       0.25055    0.63138    0.01336    1.000
    N1562    N        0.25606    0.70129    0.06573    1.000
    Si1563   Si       0.27500    0.72430    0.09790    1.000
    Si1564   Si       0.27424    0.74976    0.00435    1.000
    N1565    N        0.23818    0.72655    0.00430    1.000
    Si1566   Si       0.22600    0.69700    0.03417    1.000
    N1567    N        0.28217    0.65195    0.03389    1.000
    Si1568   Si       0.27377    0.60788    0.15734    1.000
    N1569    N        0.23485    0.53335    0.19467    1.000
    N1570    N        0.23530    0.58805    0.14196    1.000
    Si1571   Si       0.27535    0.54584    0.19704    1.000
    Si1572   Si       0.25724    0.62787    0.21732    1.000
    N1573    N        0.24257    0.65827    0.24253    1.000
    N1574    N        0.27167    0.70503    0.13669    1.000
    Si1575   Si       0.24118    0.67890    0.15535    1.000
    Si1576   Si       0.27947    0.72709    0.24428    1.000
    N1577    N        0.25532    0.64310    0.17625    1.000
    Si1578   Si       0.22254    0.69260    0.22513    1.000
    N1579    N        0.25222    0.60305    0.28003    1.000
    N1580    N        0.26655    0.54661    0.31896    1.000
    Si1581   Si       0.22597    0.53212    0.31417    1.000
    N1582    N        0.23608    0.72428    0.25347    1.000
    Si1583   Si       0.24803    0.64660    0.28428    1.000
    N1584    N        0.27710    0.65742    0.31414    1.000
    Si1585   Si       0.27499    0.64650    0.35709    1.000
    N1586    N        0.24559    0.67697    0.36791    1.000
    Si1587   Si       0.26849    0.53486    0.48669    1.000
    N1588    N        0.25933    0.61132    0.38315    1.000
    N1589    N        0.24021    0.60876    0.45015    1.000
    Si1590   Si       0.24655    0.60177    0.49226    1.000
    N1591    N        0.22768    0.52934    0.46832    1.000
    N1592    N        0.26365    0.68342    0.44866    1.000
    Si1593   Si       0.24919    0.69325    0.40831    1.000
    Si1594   Si       0.23150    0.65336    0.46268    1.000
    N1595    N        0.24278    0.58521    0.60250    1.000
    Si1596   Si       0.26979    0.55220    0.59680    1.000
    N1597    N        0.24039    0.51882    0.58735    1.000
    N1598    N        0.27522    0.62419    0.55686    1.000
    Si1599   Si       0.24323    0.62568    0.58701    1.000
    N1600    N        0.27949    0.57534    0.50119    1.000
    N1601    N        0.27048    0.51098    0.52355    1.000
    Si1602   Si       0.26725    0.66226    0.53694    1.000
    N1603    N        0.24786    0.69376    0.55648    1.000
    Si1604   Si       0.25170    0.70089    0.59924    1.000
    N1605    N        0.23361    0.74922    0.51374    1.000
    N1606    N        0.24839    0.66006    0.61332    1.000
    N1607    N        0.24856    0.64441    0.50207    1.000
    N1608    N        0.22916    0.73344    0.61903    1.000
    N1609    N        0.27440    0.62221    0.67885    1.000
    Si1610   Si       0.26064    0.58764    0.70100    1.000
    N1611    N        0.27020    0.69601    0.66842    1.000
    N1612    N        0.22919    0.71075    0.72155    1.000
    Si1613   Si       0.26323    0.72683    0.69944    1.000
    Si1614   Si       0.25528    0.65598    0.65617    1.000
    N1615    N        0.23656    0.56314    0.79496    1.000
    Si1616   Si       0.27424    0.58476    0.78587    1.000
    N1617    N        0.27601    0.62061    0.80986    1.000
    N1618    N        0.25755    0.59288    0.74524    1.000
    Si1619   Si       0.23790    0.64443    0.81278    1.000
    N1620    N        0.27591    0.73660    0.83827    1.000
    N1621    N        0.25981    0.68068    0.80300    1.000
    Si1622   Si       0.24380    0.71325    0.82365    1.000
    N1623    N        0.22645    0.74635    0.79925    1.000
    N1624    N        0.28045    0.52466    0.96433    1.000
    Si1625   Si       0.25862    0.54161    0.87196    1.000
    N1626    N        0.26380    0.58421    0.87964    1.000
    N1627    N        0.25868    0.61076    0.97695    1.000
    Si1628   Si       0.24026    0.52851    0.94801    1.000
    Si1629   Si       0.24745    0.62400    0.88114    1.000
    N1630    N        0.25047    0.51487    0.90781    1.000
    N1631    N        0.23078    0.62942    0.92059    1.000
    N1632    N        0.27982    0.65170    0.88737    1.000
    Si1633   Si       0.23692    0.73309    0.96117    1.000
    N1634    N        0.24447    0.70264    0.93200    1.000
    Si1635   Si       0.26059    0.66204    0.92538    1.000
    N1636    N        0.24300    0.82562    0.07519    1.000
    Si1637   Si       0.25406    0.86740    0.06320    1.000
    N1638    N        0.26940    0.78812    0.02477    1.000
    N1639    N        0.25928    0.76486    0.09925    1.000
    Si1640   Si       0.27574    0.80539    0.09829    1.000
    Si1641   Si       0.23090    0.79981    0.03965    1.000
    N1642    N        0.24496    0.94355    0.04412    1.000
    Si1643   Si       0.23818    0.98471    0.06272    1.000
    N1644    N        0.27547    0.89154    0.09001    1.000
    N1645    N        0.27711    0.97333    0.08370    1.000
    Si1646   Si       0.27835    0.93123    0.06975    1.000
    Si1647   Si       0.22723    0.91424    0.01594    1.000
    N1648    N        0.23057    0.86846    0.12716    1.000
    N1649    N        0.24811    0.81646    0.22123    1.000
    Si1650   Si       0.27430    0.87348    0.12936    1.000
    Si1651   Si       0.27973    0.79424    0.19891    1.000
    N1652    N        0.27410    0.76453    0.17049    1.000
    Si1653   Si       0.26051    0.99830    0.18234    1.000
    N1654    N        0.25228    0.91809    0.22572    1.000
    Si1655   Si       0.26288    0.92136    0.18423    1.000
    N1656    N        0.28053    0.95985    0.17925    1.000
    N1657    N        0.22366    0.92728    0.16360    1.000
    N1658    N        0.24242    0.78427    0.29238    1.000
    N1659    N        0.23896    0.85439    0.30053    1.000
    Si1660   Si       0.26627    0.79864    0.25826    1.000
    N1661    N        0.25990    0.76270    0.35684    1.000
    Si1662   Si       0.27536    0.78295    0.32424    1.000
    Si1663   Si       0.28192    0.85060    0.30340    1.000
    N1664    N        0.24965    0.92526    0.32503    1.000
    Si1665   Si       0.25743    0.96155    0.34507    1.000
    N1666    N        0.25311    0.00262    0.33407    1.000
    Si1667   Si       0.28091    0.90408    0.35142    1.000
    Si1668   Si       0.23835    0.87018    0.41444    1.000
    N1669    N        0.26148    0.79704    0.41793    1.000
    N1670    N        0.25284    0.85787    0.45432    1.000
    N1671    N        0.26466    0.79877    0.49004    1.000
    Si1672   Si       0.27489    0.81894    0.45478    1.000
    Si1673   Si       0.24595    0.87802    0.49294    1.000
    N1674    N        0.27274    0.87902    0.38745    1.000
    N1675    N        0.27737    0.00372    0.40804    1.000
    N1676    N        0.26678    0.94431    0.44355    1.000
    N1677    N        0.23268    0.95308    0.38014    1.000
    Si1678   Si       0.26879    0.96114    0.40350    1.000
    N1679    N        0.24412    0.84494    0.59470    1.000
    N1680    N        0.23395    0.86077    0.53124    1.000
    Si1681   Si       0.25495    0.87606    0.56625    1.000
    N1682    N        0.27456    0.78464    0.61333    1.000
    Si1683   Si       0.27683    0.82864    0.61892    1.000
    Si1684   Si       0.27788    0.76073    0.51058    1.000
    N1685    N        0.24869    0.91536    0.58689    1.000
    Si1686   Si       0.24810    0.98915    0.55997    1.000
    N1687    N        0.26510    0.98824    0.52051    1.000
    N1688    N        0.27099    0.98167    0.59689    1.000
    N1689    N        0.25792    0.76573    0.67846    1.000
    Si1690   Si       0.23933    0.86416    0.67337    1.000
    N1691    N        0.26441    0.83338    0.66073    1.000
    Si1692   Si       0.24210    0.76918    0.63896    1.000
    N1693    N        0.26407    0.97641    0.66647    1.000
    N1694    N        0.25285    0.90781    0.67136    1.000
    Si1695   Si       0.28189    0.00263    0.63398    1.000
    Si1696   Si       0.23488    0.99245    0.69406    1.000
    N1697    N        0.26330    0.80821    0.83472    1.000
    N1698    N        0.23767    0.83819    0.77391    1.000
    Si1699   Si       0.26103    0.77067    0.81328    1.000
    Si1700   Si       0.23060    0.83319    0.81856    1.000
    Si1701   Si       0.27571    0.82299    0.76336    1.000
    N1702    N        0.27867    0.78096    0.77423    1.000
    Si1703   Si       0.24556    0.99765    0.75461    1.000
    N1704    N        0.27248    0.91821    0.80189    1.000
    N1705    N        0.26253    0.94256    0.86450    1.000
    Si1706   Si       0.23125    0.90832    0.79732    1.000
    Si1707   Si       0.23842    0.84446    0.90543    1.000
    N1708    N        0.24139    0.80958    0.93163    1.000
    N1709    N        0.27901    0.84338    0.89004    1.000
    N1710    N        0.27420    0.75867    0.96308    1.000
    Si1711   Si       0.25011    0.90765    0.94547    1.000
    N1712    N        0.25441    0.99814    0.98162    1.000
    N1713    N        0.25872    0.90647    0.98774    1.000
    Si1714   Si       0.23246    0.98873    0.94613    1.000
    Si1715   Si       0.28147    0.94843    0.90574    1.000
    N1716    N        0.24414    0.95001    0.93239    1.000
    N1717    N        0.30741    0.03286    0.09370    1.000
    Si1718   Si       0.32445    0.08725    0.04194    1.000
    N1719    N        0.32004    0.11963    0.01277    1.000
    N1720    N        0.32840    0.04590    0.02867    1.000
    Si1721   Si       0.33474    0.06033    0.10852    1.000
    Si1722   Si       0.29979    0.02082    0.05317    1.000
    N1723    N        0.28370    0.09573    0.05746    1.000
    Si1724   Si       0.28610    0.13455    0.03531    1.000
    Si1725   Si       0.31045    0.21274    0.05467    1.000
    N1726    N        0.32998    0.15374    0.10987    1.000
    N1727    N        0.33510    0.21910    0.08976    1.000
    N1728    N        0.33428    0.22014    0.01996    1.000
    N1729    N        0.28681    0.17340    0.05858    1.000
    Si1730   Si       0.28733    0.16384    0.10345    1.000
    Si1731   Si       0.29826    0.10838    0.16989    1.000
    N1732    N        0.31872    0.09047    0.13477    1.000
    N1733    N        0.31872    0.09793    0.20796    1.000
    Si1734   Si       0.31371    0.00995    0.23589    1.000
    Si1735   Si       0.29759    0.13212    0.22330    1.000
    N1736    N        0.29796    0.15040    0.18485    1.000
    N1737    N        0.29440    0.21148    0.20984    1.000
    Si1738   Si       0.30301    0.19119    0.17117    1.000
    Si1739   Si       0.29359    0.25293    0.20228    1.000
    Si1740   Si       0.32166    0.04333    0.29026    1.000
    N1741    N        0.29618    0.08531    0.36053    1.000
    N1742    N        0.33353    0.04617    0.25029    1.000
    Si1743   Si       0.33674    0.08782    0.34414    1.000
    Si1744   Si       0.29093    0.18951    0.36201    1.000
    Si1745   Si       0.31094    0.13969    0.29668    1.000
    N1746    N        0.30603    0.17121    0.32626    1.000
    Si1747   Si       0.32310    0.21073    0.31167    1.000
    N1748    N        0.31245    0.22561    0.27355    1.000
    N1749    N        0.30953    0.15776    0.25698    1.000
    N1750    N        0.29795    0.22894    0.34130    1.000
    Si1751   Si       0.28867    0.19706    0.24948    1.000
    N1752    N        0.30069    0.01792    0.47629    1.000
    N1753    N        0.31106    0.12287    0.41855    1.000
    Si1754   Si       0.29610    0.08524    0.40519    1.000
    N1755    N        0.32584    0.05740    0.42376    1.000
    N1756    N        0.28842    0.10723    0.48166    1.000
    Si1757   Si       0.33789    0.03577    0.46153    1.000
    Si1758   Si       0.31041    0.19751    0.48363    1.000
    N1759    N        0.29732    0.23375    0.46242    1.000
    N1760    N        0.30265    0.19321    0.40400    1.000
    Si1761   Si       0.28328    0.13595    0.44893    1.000
    Si1762   Si       0.31545    0.08322    0.58627    1.000
    N1763    N        0.32293    0.08238    0.54400    1.000
    Si1764   Si       0.32486    0.09731    0.50306    1.000
    N1765    N        0.31958    0.11360    0.61499    1.000
    N1766    N        0.31129    0.19774    0.52666    1.000
    N1767    N        0.30212    0.20932    0.58742    1.000
    Si1768   Si       0.33626    0.21513    0.55730    1.000
    Si1769   Si       0.28323    0.18455    0.55927    1.000
    N1770    N        0.31774    0.01883    0.71059    1.000
    Si1771   Si       0.29386    0.11343    0.73793    1.000
    Si1772   Si       0.28512    0.04362    0.69697    1.000
    N1773    N        0.31453    0.24591    0.64566    1.000
    N1774    N        0.30963    0.14122    0.70564    1.000
    N1775    N        0.28531    0.20608    0.71550    1.000
    Si1776   Si       0.31989    0.21116    0.74421    1.000
    N1777    N        0.28716    0.17537    0.64743    1.000
    Si1778   Si       0.29020    0.21468    0.62947    1.000
    Si1779   Si       0.28537    0.13938    0.62311    1.000
    N1780    N        0.31368    0.02626    0.78949    1.000
    N1781    N        0.32673    0.10619    0.76546    1.000
    Si1782   Si       0.31538    0.10145    0.80808    1.000
    N1783    N        0.34192    0.07507    0.83008    1.000
    N1784    N        0.31171    0.13905    0.83023    1.000
    N1785    N        0.31903    0.18982    0.78276    1.000
    Si1786   Si       0.29611    0.17685    0.81605    1.000
    N1787    N        0.30228    0.20874    0.84551    1.000
    Si1788   Si       0.32026    0.13513    0.87253    1.000
    Si1789   Si       0.34043    0.20307    0.86702    1.000
    N1790    N        0.31010    0.25274    0.74835    1.000
    Si1791   Si       0.32928    0.04684    0.94159    1.000
    N1792    N        0.28851    0.06476    0.94621    1.000
    N1793    N        0.32826    0.04332    0.89744    1.000
    N1794    N        0.29572    0.10119    0.88035    1.000
    Si1795   Si       0.33283    0.11623    0.97325    1.000
    N1796    N        0.32893    0.00788    0.96454    1.000
    N1797    N        0.30755    0.12966    0.94194    1.000
    Si1798   Si       0.31549    0.00592    0.87477    1.000
    Si1799   Si       0.32528    0.17028    0.94203    1.000
    N1800    N        0.32810    0.17249    0.89572    1.000
    N1801    N        0.29601    0.18391    0.97688    1.000
    Si1802   Si       0.31469    0.22306    0.98095    1.000
    N1803    N        0.34088    0.21298    0.94631    1.000
    N1804    N        0.29607    0.31325    0.01004    1.000
    N1805    N        0.29890    0.37053    0.05741    1.000
    Si1806   Si       0.33748    0.32152    0.00022    1.000
    Si1807   Si       0.29784    0.38408    0.09850    1.000
    Si1808   Si       0.32672    0.39338    0.03157    1.000
    N1809    N        0.30426    0.42745    0.09640    1.000
    N1810    N        0.29760    0.41362    0.00237    1.000
    N1811    N        0.32468    0.48131    0.00110    1.000
    N1812    N        0.32489    0.35965    0.12230    1.000
    N1813    N        0.30712    0.28242    0.23158    1.000
    Si1814   Si       0.30522    0.32517    0.22750    1.000
    Si1815   Si       0.30569    0.35060    0.15995    1.000
    N1816    N        0.33023    0.33995    0.19611    1.000
    N1817    N        0.31335    0.26782    0.16271    1.000
    N1818    N        0.32819    0.41842    0.22996    1.000
    N1819    N        0.29351    0.39019    0.17757    1.000
    Si1820   Si       0.29078    0.48175    0.17135    1.000
    N1821    N        0.32461    0.45623    0.16694    1.000
    Si1822   Si       0.32722    0.41631    0.18727    1.000
    Si1823   Si       0.29955    0.49680    0.24613    1.000
    N1824    N        0.31615    0.34006    0.26725    1.000
    N1825    N        0.32569    0.29208    0.30652    1.000
    Si1826   Si       0.32881    0.26891    0.27027    1.000
    Si1827   Si       0.29511    0.32227    0.30075    1.000
    N1828    N        0.28884    0.35335    0.33007    1.000
    N1829    N        0.32177    0.40287    0.29689    1.000
    Si1830   Si       0.30340    0.42400    0.26511    1.000
    N1831    N        0.29767    0.48365    0.34079    1.000
    Si1832   Si       0.29371    0.39627    0.32972    1.000
    N1833    N        0.29229    0.46555    0.27442    1.000
    N1834    N        0.29801    0.41694    0.36833    1.000
    Si1835   Si       0.31677    0.45769    0.36969    1.000
    Si1836   Si       0.32816    0.32782    0.41157    1.000
    N1837    N        0.29436    0.35327    0.39834    1.000
    N1838    N        0.30817    0.29320    0.42881    1.000
    Si1839   Si       0.32993    0.25948    0.44346    1.000
    N1840    N        0.33611    0.40490    0.42186    1.000
    N1841    N        0.31879    0.38599    0.49525    1.000
    N1842    N        0.30868    0.47583    0.40808    1.000
    Si1843   Si       0.29764    0.39616    0.40582    1.000
    N1844    N        0.30257    0.45417    0.47782    1.000
    Si1845   Si       0.28448    0.47282    0.44482    1.000
    Si1846   Si       0.32310    0.35393    0.52806    1.000
    N1847    N        0.28936    0.28550    0.50891    1.000
    Si1848   Si       0.33280    0.27999    0.51469    1.000
    N1849    N        0.29279    0.36808    0.61393    1.000
    N1850    N        0.29306    0.30278    0.61602    1.000
    N1851    N        0.28794    0.33814    0.54765    1.000
    N1852    N        0.30889    0.43220    0.54429    1.000
    N1853    N        0.30997    0.49201    0.58497    1.000
    Si1854   Si       0.30136    0.44913    0.58243    1.000
    Si1855   Si       0.29416    0.42153    0.50618    1.000
    N1856    N        0.32780    0.42756    0.61269    1.000
    N1857    N        0.33984    0.50531    0.52342    1.000
    Si1858   Si       0.33171    0.51268    0.61793    1.000
    Si1859   Si       0.33732    0.47404    0.49379    1.000
    Si1860   Si       0.28932    0.28213    0.65309    1.000
    N1861    N        0.31890    0.30915    0.67174    1.000
    Si1862   Si       0.31645    0.33706    0.63655    1.000
    N1863    N        0.32413    0.42469    0.70212    1.000
    N1864    N        0.32528    0.49765    0.66070    1.000
    Si1865   Si       0.28986    0.40868    0.62774    1.000
    Si1866   Si       0.27979    0.41951    0.70714    1.000
    Si1867   Si       0.32522    0.28516    0.77183    1.000
    Si1868   Si       0.29673    0.33924    0.81718    1.000
    N1869    N        0.32867    0.33071    0.84206    1.000
    N1870    N        0.29121    0.30799    0.78619    1.000
    N1871    N        0.30230    0.38258    0.80786    1.000
    N1872    N        0.32187    0.44508    0.83331    1.000
    Si1873   Si       0.30858    0.40691    0.84248    1.000
    N1874    N        0.31376    0.44318    0.76589    1.000
    Si1875   Si       0.32902    0.47006    0.79906    1.000
    N1876    N        0.29429    0.49635    0.78789    1.000
    Si1877   Si       0.28830    0.41049    0.77828    1.000
    Si1878   Si       0.28784    0.29581    0.97044    1.000
    Si1879   Si       0.33541    0.35152    0.88102    1.000
    N1880    N        0.29720    0.34014    0.89778    1.000
    N1881    N        0.32729    0.31783    0.95778    1.000
    Si1882   Si       0.30577    0.35249    0.93826    1.000
    N1883    N        0.28743    0.25400    0.96557    1.000
    N1884    N        0.33523    0.38221    0.93546    1.000
    N1885    N        0.32019    0.49692    0.90754    1.000
    Si1886   Si       0.31273    0.44607    0.97695    1.000
    Si1887   Si       0.28442    0.49739    0.93150    1.000
    Si1888   Si       0.30028    0.59175    0.09033    1.000
    N1889    N        0.30876    0.55068    0.10082    1.000
    N1890    N        0.32949    0.60145    0.06015    1.000
    N1891    N        0.33070    0.53295    0.03431    1.000
    Si1892   Si       0.30081    0.52893    0.06423    1.000
    Si1893   Si       0.32093    0.63476    0.03103    1.000
    N1894    N        0.31404    0.71402    0.08474    1.000
    N1895    N        0.30599    0.72578    0.02071    1.000
    Si1896   Si       0.29737    0.69140    0.04850    1.000
    N1897    N        0.34011    0.67326    0.03768    1.000
    N1898    N        0.30692    0.61019    0.12936    1.000
    Si1899   Si       0.32708    0.53923    0.13807    1.000
    N1900    N        0.30025    0.52307    0.16683    1.000
    Si1901   Si       0.32253    0.60582    0.20974    1.000
    N1902    N        0.28875    0.53852    0.23672    1.000
    N1903    N        0.28758    0.58762    0.19175    1.000
    N1904    N        0.29193    0.70694    0.20595    1.000
    N1905    N        0.29997    0.63764    0.22817    1.000
    N1906    N        0.33313    0.72455    0.15273    1.000
    Si1907   Si       0.29228    0.72688    0.16800    1.000
    Si1908   Si       0.31497    0.67715    0.22946    1.000
    Si1909   Si       0.30018    0.52597    0.34422    1.000
    N1910    N        0.32138    0.58076    0.28658    1.000
    N1911    N        0.30021    0.60433    0.34020    1.000
    Si1912   Si       0.32752    0.55463    0.25474    1.000
    Si1913   Si       0.33759    0.61136    0.31775    1.000
    N1914    N        0.34031    0.53799    0.34000    1.000
    Si1915   Si       0.28099    0.58603    0.30515    1.000
    N1916    N        0.32154    0.70777    0.33441    1.000
    Si1917   Si       0.31079    0.67898    0.30319    1.000
    N1918    N        0.30308    0.69842    0.26621    1.000
    N1919    N        0.29111    0.54324    0.38592    1.000
    Si1920   Si       0.29512    0.58634    0.38025    1.000
    N1921    N        0.33019    0.59788    0.40402    1.000
    Si1922   Si       0.31130    0.51730    0.41381    1.000
    N1923    N        0.29111    0.51510    0.45434    1.000
    N1924    N        0.31354    0.66162    0.37715    1.000
    N1925    N        0.29487    0.73729    0.47941    1.000
    N1926    N        0.33203    0.69359    0.45059    1.000
    Si1927   Si       0.29637    0.69283    0.47598    1.000
    N1928    N        0.29221    0.72692    0.40511    1.000
    Si1929   Si       0.31716    0.73369    0.44152    1.000
    Si1930   Si       0.31835    0.70505    0.37795    1.000
    N1931    N        0.29645    0.55559    0.56205    1.000
    Si1932   Si       0.29691    0.59171    0.53857    1.000
    N1933    N        0.33385    0.60974    0.52371    1.000
    Si1934   Si       0.30719    0.51740    0.54847    1.000
    N1935    N        0.33867    0.60132    0.60242    1.000
    Si1936   Si       0.33846    0.65372    0.52687    1.000
    N1937    N        0.29240    0.71886    0.60417    1.000
    N1938    N        0.30314    0.67508    0.51514    1.000
    Si1939   Si       0.33732    0.64491    0.60543    1.000
    N1940    N        0.28305    0.55214    0.69327    1.000
    N1941    N        0.29869    0.54335    0.62843    1.000
    Si1942   Si       0.32971    0.57478    0.63495    1.000
    Si1943   Si       0.28757    0.51967    0.66522    1.000
    Si1944   Si       0.30577    0.70224    0.64259    1.000
    N1945    N        0.31262    0.65865    0.63643    1.000
    N1946    N        0.29936    0.72740    0.72292    1.000
    N1947    N        0.33252    0.66439    0.70320    1.000
    Si1948   Si       0.33469    0.70903    0.70395    1.000
    Si1949   Si       0.31610    0.63489    0.67507    1.000
    N1950    N        0.31085    0.56438    0.78961    1.000
    Si1951   Si       0.30848    0.53008    0.81446    1.000
    N1952    N        0.30018    0.53828    0.85620    1.000
    N1953    N        0.33221    0.61068    0.86195    1.000
    N1954    N        0.31917    0.67779    0.83895    1.000
    Si1955   Si       0.31472    0.72215    0.83323    1.000
    N1956    N        0.32949    0.66204    0.77438    1.000
    N1957    N        0.32247    0.72674    0.79001    1.000
    Si1958   Si       0.29816    0.65852    0.80414    1.000
    Si1959   Si       0.30691    0.75119    0.75918    1.000
    Si1960   Si       0.33626    0.51617    0.87353    1.000
    N1961    N        0.30827    0.58899    0.92798    1.000
    Si1962   Si       0.30815    0.57843    0.88217    1.000
    Si1963   Si       0.29827    0.61431    0.96195    1.000
    Si1964   Si       0.31402    0.52371    0.99048    1.000
    N1965    N        0.32757    0.61640    0.99355    1.000
    Si1966   Si       0.32990    0.68324    0.93566    1.000
    N1967    N        0.31859    0.71546    0.90974    1.000
    Si1968   Si       0.32278    0.65123    0.87372    1.000
    Si1969   Si       0.33410    0.75107    0.89381    1.000
    N1970    N        0.29857    0.65649    0.94804    1.000
    N1971    N        0.31351    0.81137    0.07387    1.000
    Si1972   Si       0.29946    0.82018    0.03242    1.000
    N1973    N        0.33768    0.82170    0.01054    1.000
    N1974    N        0.28280    0.86187    0.02983    1.000
    Si1975   Si       0.29539    0.89712    0.00798    1.000
    N1976    N        0.30970    0.92671    0.03903    1.000
    N1977    N        0.30661    0.98933    0.02278    1.000
    Si1978   Si       0.29184    0.99864    0.11568    1.000
    Si1979   Si       0.33505    0.96035    0.04100    1.000
    Si1980   Si       0.32386    0.83741    0.23082    1.000
    Si1981   Si       0.32554    0.82167    0.15108    1.000
    N1982    N        0.31294    0.82030    0.19335    1.000
    N1983    N        0.28882    0.83137    0.12867    1.000
    N1984    N        0.28837    0.76925    0.23514    1.000
    N1985    N        0.33166    0.87823    0.21984    1.000
    N1986    N        0.33768    0.98235    0.21197    1.000
    Si1987   Si       0.32375    0.96262    0.17534    1.000
    Si1988   Si       0.32707    0.88806    0.17803    1.000
    N1989    N        0.32520    0.98810    0.13922    1.000
    N1990    N        0.28527    0.89078    0.16553    1.000
    N1991    N        0.29810    0.82990    0.26856    1.000
    N1992    N        0.31168    0.77002    0.30225    1.000
    N1993    N        0.29133    0.82082    0.33518    1.000
    Si1994   Si       0.33309    0.80353    0.28610    1.000
    Si1995   Si       0.32936    0.82050    0.35557    1.000
    N1996    N        0.30096    0.88429    0.31872    1.000
    N1997    N        0.30633    0.99962    0.27877    1.000
    N1998    N        0.33326    0.93416    0.27731    1.000
    Si1999   Si       0.33708    0.95023    0.36283    1.000
    Si2000   Si       0.34148    0.97388    0.29137    1.000
    Si2001   Si       0.33705    0.90263    0.30624    1.000
    N2002    N        0.29246    0.94387    0.36699    1.000
    N2003    N        0.32274    0.78188    0.37570    1.000
    Si2004   Si       0.30969    0.86802    0.41114    1.000
    N2005    N        0.31249    0.83467    0.43950    1.000
    Si2006   Si       0.28524    0.76815    0.39213    1.000
    N2007    N        0.33646    0.85699    0.37649    1.000
    N2008    N        0.32320    0.95224    0.48972    1.000
    Si2009   Si       0.29865    0.92434    0.46617    1.000
    N2010    N        0.32085    0.90189    0.43473    1.000
    N2011    N        0.31717    0.83970    0.61347    1.000
    N2012    N        0.29941    0.76884    0.54766    1.000
    Si2013   Si       0.33242    0.85982    0.57843    1.000
    Si2014   Si       0.33669    0.78805    0.53393    1.000
    N2015    N        0.29751    0.87570    0.56185    1.000
    Si2016   Si       0.30242    0.75988    0.59003    1.000
    N2017    N        0.33822    0.81139    0.49834    1.000
    N2018    N        0.34089    0.77043    0.61103    1.000
    Si2019   Si       0.31145    0.90487    0.53168    1.000
    N2020    N        0.31406    0.94168    0.55649    1.000
    Si2021   Si       0.30652    0.98872    0.50990    1.000
    Si2022   Si       0.28582    0.93920    0.59266    1.000
    N2023    N        0.33394    0.00785    0.53657    1.000
    N2024    N        0.28201    0.90230    0.50010    1.000
    N2025    N        0.32567    0.80837    0.67741    1.000
    Si2026   Si       0.32937    0.81472    0.72039    1.000
    N2027    N        0.28442    0.82081    0.72264    1.000
    Si2028   Si       0.28034    0.80204    0.68412    1.000
    N2029    N        0.32444    0.99774    0.64369    1.000
    Si2030   Si       0.33477    0.98923    0.68479    1.000
    Si2031   Si       0.28571    0.93915    0.66593    1.000
    N2032    N        0.31855    0.94981    0.69407    1.000
    N2033    N        0.30735    0.92637    0.62911    1.000
    N2034    N        0.30721    0.84461    0.78374    1.000
    Si2035   Si       0.32673    0.85909    0.82104    1.000
    N2036    N        0.33419    0.82503    0.84984    1.000
    Si2037   Si       0.33161    0.87522    0.76111    1.000
    Si2038   Si       0.29391    0.81143    0.86545    1.000
    N2039    N        0.33612    0.77956    0.74167    1.000
    N2040    N        0.31167    0.88890    0.85109    1.000
    N2041    N        0.32244    0.95104    0.82233    1.000
    Si2042   Si       0.30228    0.94391    0.78144    1.000
    Si2043   Si       0.29290    0.92471    0.83948    1.000
    N2044    N        0.31921    0.91599    0.75273    1.000
    Si2045   Si       0.31793    0.00451    0.75329    1.000
    N2046    N        0.28327    0.97708    0.75926    1.000
    Si2047   Si       0.28159    0.79111    0.93308    1.000
    N2048    N        0.30745    0.82035    0.95038    1.000
    N2049    N        0.30050    0.77957    0.89465    1.000
    Si2050   Si       0.30459    0.87778    0.89189    1.000
    Si2051   Si       0.33886    0.84230    0.97157    1.000
    N2052    N        0.32439    0.88463    0.97784    1.000
    N2053    N        0.31276    0.94866    0.96210    1.000
    Si2054   Si       0.29465    0.98228    0.98146    1.000
    N2055    N        0.28832    0.90656    0.91921    1.000
    N2056    N        0.31632    0.97245    0.90141    1.000
    Si2057   Si       0.33025    0.91070    0.94303    1.000
    N2058    N        0.35150    0.09058    0.07889    1.000
    N2059    N        0.38951    0.10455    0.01497    1.000
    Si2060   Si       0.34759    0.01479    0.00458    1.000
    Si2061   Si       0.34968    0.11717    0.11615    1.000
    Si2062   Si       0.39128    0.09632    0.05870    1.000
    Si2063   Si       0.36036    0.25329    0.09073    1.000
    N2064    N        0.38938    0.17740    0.03392    1.000
    Si2065   Si       0.37760    0.22041    0.02644    1.000
    N2066    N        0.38951    0.24664    0.05675    1.000
    N2067    N        0.39041    0.18841    0.10702    1.000
    Si2068   Si       0.39097    0.14859    0.00363    1.000
    Si2069   Si       0.34945    0.19314    0.12022    1.000
    N2070    N        0.36855    0.03738    0.12190    1.000
    N2071    N        0.37744    0.05635    0.19309    1.000
    N2072    N        0.38233    0.10435    0.14142    1.000
    Si2073   Si       0.35244    0.07490    0.22398    1.000
    Si2074   Si       0.39180    0.06147    0.15079    1.000
    N2075    N        0.38218    0.10039    0.24610    1.000
    N2076    N        0.37197    0.25441    0.19663    1.000
    N2077    N        0.37949    0.25027    0.12971    1.000
    Si2078   Si       0.37739    0.21250    0.18872    1.000
    N2079    N        0.34473    0.19871    0.16244    1.000
    N2080    N        0.37930    0.19847    0.22961    1.000
    Si2081   Si       0.36857    0.01701    0.34107    1.000
    Si2082   Si       0.38244    0.11703    0.28759    1.000
    N2083    N        0.34572    0.04846    0.32553    1.000
    N2084    N        0.34205    0.11328    0.30958    1.000
    N2085    N        0.36507    0.21550    0.31412    1.000
    Si2086   Si       0.38791    0.25152    0.30347    1.000
    N2087    N        0.39058    0.15862    0.28200    1.000
    Si2088   Si       0.39998    0.18869    0.31187    1.000
    N2089    N        0.35301    0.06696    0.48581    1.000
    Si2090   Si       0.38896    0.08485    0.46403    1.000
    N2091    N        0.36666    0.02256    0.38422    1.000
    Si2092   Si       0.36311    0.06033    0.40157    1.000
    N2093    N        0.36011    0.09677    0.37917    1.000
    N2094    N        0.37404    0.12069    0.44570    1.000
    Si2095   Si       0.35368    0.12761    0.40635    1.000
    N2096    N        0.39612    0.05855    0.42967    1.000
    N2097    N        0.35177    0.23830    0.41334    1.000
    Si2098   Si       0.37235    0.15471    0.47322    1.000
    N2099    N        0.34437    0.18499    0.45943    1.000
    Si2100   Si       0.34229    0.19747    0.41711    1.000
    N2101    N        0.36656    0.16834    0.39677    1.000
    Si2102   Si       0.39483    0.24576    0.40377    1.000
    Si2103   Si       0.39556    0.25307    0.47539    1.000
    N2104    N        0.38916    0.09447    0.61246    1.000
    N2105    N        0.39332    0.05406    0.55250    1.000
    Si2106   Si       0.34932    0.04679    0.54663    1.000
    Si2107   Si       0.39407    0.05503    0.59796    1.000
    Si2108   Si       0.35228    0.01009    0.61507    1.000
    N2109    N        0.34368    0.04626    0.59064    1.000
    N2110    N        0.34899    0.13340    0.50482    1.000
    Si2111   Si       0.37338    0.15038    0.53702    1.000
    N2112    N        0.36725    0.18366    0.56085    1.000
    N2113    N        0.35250    0.25368    0.54416    1.000
    Si2114   Si       0.39576    0.25442    0.54550    1.000
    N2115    N        0.38860    0.02496    0.63103    1.000
    Si2116   Si       0.35601    0.10957    0.63848    1.000
    Si2117   Si       0.39123    0.08762    0.70138    1.000
    N2118    N        0.35999    0.08503    0.67252    1.000
    N2119    N        0.37955    0.12899    0.71942    1.000
    N2120    N        0.39300    0.05169    0.72375    1.000
    N2121    N        0.36329    0.25762    0.69799    1.000
    Si2122   Si       0.35493    0.24931    0.65718    1.000
    N2123    N        0.37840    0.21322    0.64577    1.000
    N2124    N        0.35276    0.19327    0.71787    1.000
    N2125    N        0.36296    0.14790    0.65844    1.000
    Si2126   Si       0.35007    0.15585    0.69895    1.000
    Si2127   Si       0.39493    0.17297    0.64703    1.000
    Si2128   Si       0.38276    0.22467    0.72507    1.000
    N2129    N        0.38340    0.03006    0.78969    1.000
    Si2130   Si       0.36955    0.11500    0.76296    1.000
    Si2131   Si       0.34953    0.03632    0.81438    1.000
    N2132    N        0.35268    0.00766    0.85019    1.000
    N2133    N        0.40908    0.09595    0.76614    1.000
    N2134    N        0.36924    0.18647    0.83727    1.000
    N2135    N        0.37603    0.14860    0.78994    1.000
    N2136    N        0.38062    0.22064    0.77004    1.000
    Si2137   Si       0.36069    0.18987    0.79508    1.000
    Si2138   Si       0.39040    0.25594    0.79297    1.000
    Si2139   Si       0.39966    0.15484    0.82596    1.000
    Si2140   Si       0.40196    0.25339    0.86424    1.000
    Si2141   Si       0.39848    0.10526    0.88448    1.000
    N2142    N        0.38694    0.06408    0.88205    1.000
    N2143    N        0.35722    0.11616    0.88286    1.000
    Si2144   Si       0.38314    0.02214    0.88182    1.000
    Si2145   Si       0.38966    0.07405    0.98427    1.000
    N2146    N        0.35202    0.07966    0.96347    1.000
    Si2147   Si       0.34229    0.07649    0.87410    1.000
    N2148    N        0.38377    0.03347    0.99378    1.000
    N2149    N        0.40123    0.23338    0.99330    1.000
    N2150    N        0.36243    0.14998    0.96652    1.000
    Si2151   Si       0.37315    0.23190    0.92412    1.000
    N2152    N        0.36649    0.23407    0.88186    1.000
    N2153    N        0.36846    0.29151    0.00848    1.000
    Si2154   Si       0.35815    0.33090    0.11035    1.000
    N2155    N        0.34815    0.36171    0.01015    1.000
    Si2156   Si       0.38304    0.29118    0.04847    1.000
    N2157    N        0.35411    0.29748    0.08203    1.000
    N2158    N        0.39024    0.36065    0.09802    1.000
    Si2159   Si       0.39317    0.38739    0.06510    1.000
    N2160    N        0.35454    0.48032    0.06882    1.000
    Si2161   Si       0.35378    0.49468    0.02919    1.000
    N2162    N        0.35706    0.41070    0.05631    1.000
    Si2163   Si       0.34667    0.44170    0.08512    1.000
    N2164    N        0.37274    0.44295    0.11886    1.000
    Si2165   Si       0.37132    0.33272    0.18514    1.000
    N2166    N        0.36543    0.31234    0.14819    1.000
    Si2167   Si       0.35576    0.27212    0.15921    1.000
    Si2168   Si       0.39505    0.27122    0.22856    1.000
    N2169    N        0.38155    0.45475    0.24409    1.000
    N2170    N        0.37176    0.41526    0.18433    1.000
    Si2171   Si       0.37242    0.41523    0.22974    1.000
    N2172    N        0.39204    0.48635    0.18120    1.000
    Si2173   Si       0.36434    0.46748    0.15429    1.000
    N2174    N        0.35734    0.50632    0.13224    1.000
    N2175    N        0.36565    0.35037    0.31671    1.000
    Si2176   Si       0.35592    0.31079    0.33453    1.000
    N2177    N        0.38971    0.28399    0.33173    1.000
    N2178    N        0.37240    0.26624    0.26517    1.000
    Si2179   Si       0.34640    0.36816    0.28342    1.000
    N2180    N        0.37456    0.37717    0.25338    1.000
    N2181    N        0.38320    0.49062    0.31146    1.000
    Si2182   Si       0.37332    0.48894    0.27098    1.000
    Si2183   Si       0.39367    0.46674    0.34671    1.000
    N2184    N        0.35856    0.44740    0.36314    1.000
    N2185    N        0.34670    0.31789    0.37596    1.000
    Si2186   Si       0.37380    0.31719    0.47407    1.000
    N2187    N        0.35285    0.27264    0.47751    1.000
    N2188    N        0.35228    0.34199    0.44553    1.000
    N2189    N        0.39426    0.50386    0.37222    1.000
    N2190    N        0.39861    0.38956    0.37313    1.000
    N2191    N        0.38373    0.40017    0.46165    1.000
    Si2192   Si       0.38545    0.44560    0.46245    1.000
    Si2193   Si       0.34438    0.38388    0.45956    1.000
    N2194    N        0.36543    0.48448    0.46371    1.000
    Si2195   Si       0.37437    0.41757    0.39722    1.000
    N2196    N        0.39651    0.44957    0.41779    1.000
    Si2197   Si       0.38709    0.33266    0.53637    1.000
    Si2198   Si       0.37312    0.36963    0.59274    1.000
    N2199    N        0.34856    0.32294    0.51606    1.000
    N2200    N        0.35028    0.37610    0.55733    1.000
    N2201    N        0.35661    0.34205    0.62113    1.000
    Si2202   Si       0.34938    0.41688    0.54052    1.000
    N2203    N        0.36336    0.44152    0.50604    1.000
    N2204    N        0.37912    0.43652    0.56568    1.000
    Si2205   Si       0.37135    0.44060    0.61040    1.000
    N2206    N        0.36974    0.48371    0.61459    1.000
    N2207    N        0.39638    0.40186    0.61140    1.000
    N2208    N        0.38370    0.27378    0.63238    1.000
    Si2209   Si       0.38724    0.31561    0.63890    1.000
    N2210    N        0.38491    0.32028    0.68222    1.000
    Si2211   Si       0.35111    0.30096    0.70147    1.000
    N2212    N        0.35113    0.30747    0.74421    1.000
    N2213    N        0.39701    0.38377    0.67933    1.000
    N2214    N        0.35783    0.48164    0.71769    1.000
    Si2215   Si       0.36196    0.41013    0.68958    1.000
    N2216    N        0.37768    0.43962    0.65983    1.000
    Si2217   Si       0.34694    0.44589    0.73805    1.000
    N2218    N        0.37736    0.41786    0.72923    1.000
    Si2219   Si       0.36303    0.47933    0.67303    1.000
    N2220    N        0.39872    0.50457    0.66873    1.000
    Si2221   Si       0.36604    0.31119    0.82944    1.000
    N2222    N        0.38123    0.33963    0.80175    1.000
    N2223    N        0.35457    0.27806    0.80282    1.000
    N2224    N        0.39795    0.29584    0.85558    1.000
    Si2225   Si       0.39066    0.31906    0.76161    1.000
    N2226    N        0.37076    0.46346    0.77900    1.000
    Si2227   Si       0.38345    0.49536    0.75081    1.000
    N2228    N        0.34312    0.39078    0.86583    1.000
    Si2229   Si       0.38785    0.40149    0.86990    1.000
    Si2230   Si       0.39588    0.27350    0.97983    1.000
    N2231    N        0.37571    0.27190    0.94203    1.000
    Si2232   Si       0.36678    0.31420    0.93929    1.000
    N2233    N        0.36827    0.33475    0.90052    1.000
    N2234    N        0.39457    0.33696    0.96418    1.000
    Si2235   Si       0.38879    0.36687    0.99436    1.000
    Si2236   Si       0.36259    0.41303    0.93624    1.000
    N2237    N        0.39745    0.49318    0.94257    1.000
    N2238    N        0.39101    0.40109    0.96892    1.000
    Si2239   Si       0.35823    0.48397    0.92456    1.000
    N2240    N        0.34442    0.44892    0.94746    1.000
    N2241    N        0.39735    0.41554    0.91001    1.000
    N2242    N        0.37369    0.49044    0.88238    1.000
    N2243    N        0.37477    0.55312    0.08045    1.000
    Si2244   Si       0.35443    0.56863    0.04708    1.000
    N2245    N        0.38204    0.57775    0.01547    1.000
    Si2246   Si       0.37857    0.51118    0.09339    1.000
    N2247    N        0.39217    0.50385    0.01380    1.000
    N2248    N        0.37638    0.72889    0.10708    1.000
    Si2249   Si       0.38500    0.66793    0.03951    1.000
    N2250    N        0.39241    0.64315    0.00297    1.000
    N2251    N        0.39092    0.71199    0.03555    1.000
    Si2252   Si       0.34843    0.71617    0.01224    1.000
    Si2253   Si       0.39675    0.73968    0.06975    1.000
    Si2254   Si       0.39589    0.65139    0.11821    1.000
    Si2255   Si       0.34179    0.70513    0.11499    1.000
    N2256    N        0.38186    0.60816    0.12193    1.000
    Si2257   Si       0.38734    0.52698    0.16294    1.000
    N2258    N        0.35730    0.55994    0.16395    1.000
    Si2259   Si       0.34565    0.62398    0.13870    1.000
    N2260    N        0.35144    0.62277    0.18083    1.000
    N2261    N        0.35121    0.57817    0.22549    1.000
    Si2262   Si       0.37924    0.58465    0.19184    1.000
    N2263    N        0.35887    0.67132    0.22517    1.000
    Si2264   Si       0.36425    0.75312    0.14039    1.000
    N2265    N        0.35321    0.66340    0.11989    1.000
    Si2266   Si       0.38128    0.65115    0.19388    1.000
    N2267    N        0.39179    0.75349    0.17191    1.000
    N2268    N        0.36618    0.61391    0.35130    1.000
    Si2269   Si       0.38149    0.52721    0.33844    1.000
    N2270    N        0.34006    0.51270    0.25862    1.000
    Si2271   Si       0.36843    0.67069    0.26824    1.000
    N2272    N        0.36912    0.71172    0.28052    1.000
    Si2273   Si       0.33904    0.73541    0.30750    1.000
    N2274    N        0.33993    0.64927    0.29457    1.000
    N2275    N        0.37468    0.75393    0.32536    1.000
    N2276    N        0.34873    0.53551    0.42550    1.000
    Si2277   Si       0.36319    0.57627    0.42108    1.000
    Si2278   Si       0.37572    0.52842    0.46058    1.000
    N2279    N        0.37031    0.57939    0.46438    1.000
    N2280    N        0.40198    0.57677    0.40219    1.000
    N2281    N        0.36537    0.65158    0.49002    1.000
    N2282    N        0.37768    0.65182    0.41159    1.000
    Si2283   Si       0.36875    0.67070    0.45112    1.000
    N2284    N        0.35484    0.72231    0.39326    1.000
    Si2285   Si       0.39353    0.71325    0.40780    1.000
    Si2286   Si       0.34657    0.63464    0.38571    1.000
    N2287    N        0.37227    0.55005    0.55976    1.000
    Si2288   Si       0.38117    0.51774    0.53390    1.000
    Si2289   Si       0.37257    0.57665    0.59055    1.000
    Si2290   Si       0.36727    0.60789    0.49624    1.000
    N2291    N        0.38006    0.71933    0.59234    1.000
    Si2292   Si       0.38610    0.67645    0.58504    1.000
    Si2293   Si       0.39682    0.74738    0.56448    1.000
    N2294    N        0.34539    0.66397    0.56691    1.000
    N2295    N        0.36471    0.54723    0.62547    1.000
    N2296    N        0.36143    0.60457    0.73248    1.000
    Si2297   Si       0.38021    0.59455    0.69354    1.000
    Si2298   Si       0.39451    0.51687    0.62807    1.000
    N2299    N        0.40005    0.56008    0.71365    1.000
    N2300    N        0.34079    0.59976    0.66918    1.000
    N2301    N        0.37820    0.65409    0.62039    1.000
    N2302    N        0.34158    0.71923    0.66246    1.000
    Si2303   Si       0.36703    0.73660    0.63185    1.000
    Si2304   Si       0.35022    0.64451    0.74002    1.000
    N2305    N        0.36565    0.72008    0.73423    1.000
    N2306    N        0.37807    0.53249    0.77090    1.000
    Si2307   Si       0.38446    0.52379    0.81507    1.000
    N2308    N        0.38841    0.56331    0.83198    1.000
    Si2309   Si       0.38414    0.57147    0.75338    1.000
    Si2310   Si       0.37004    0.58493    0.86421    1.000
    N2311    N        0.34512    0.50976    0.82574    1.000
    N2312    N        0.34594    0.74741    0.85061    1.000
    N2313    N        0.38465    0.71217    0.80378    1.000
    Si2314   Si       0.37609    0.75015    0.81976    1.000
    Si2315   Si       0.35315    0.69938    0.77544    1.000
    N2316    N        0.38864    0.66447    0.74997    1.000
    Si2317   Si       0.38889    0.52157    0.97346    1.000
    N2318    N        0.37066    0.60234    0.94488    1.000
    N2319    N        0.34778    0.53452    0.96302    1.000
    Si2320   Si       0.36999    0.60845    0.98843    1.000
    N2321    N        0.34992    0.55633    0.89086    1.000
    Si2322   Si       0.34673    0.56602    0.93399    1.000
    N2323    N        0.39884    0.61154    0.88395    1.000
    Si2324   Si       0.38653    0.63300    0.92000    1.000
    N2325    N        0.35200    0.65911    0.90759    1.000
    Si2326   Si       0.37297    0.73766    0.95890    1.000
    N2327    N        0.34997    0.70068    0.97083    1.000
    N2328    N        0.36514    0.75705    0.99737    1.000
    N2329    N        0.37355    0.77559    0.06106    1.000
    N2330    N        0.37765    0.83832    0.08876    1.000
    Si2331   Si       0.36896    0.79334    0.02160    1.000
    Si2332   Si       0.35215    0.80278    0.08717    1.000
    N2333    N        0.36703    0.97634    0.01363    1.000
    N2334    N        0.38540    0.90417    0.11388    1.000
    Si2335   Si       0.36237    0.99446    0.11537    1.000
    N2336    N        0.34839    0.97486    0.07773    1.000
    Si2337   Si       0.38232    0.86184    0.12452    1.000
    N2338    N        0.34755    0.85883    0.15190    1.000
    N2339    N        0.34823    0.79126    0.12956    1.000
    Si2340   Si       0.39733    0.80453    0.24435    1.000
    Si2341   Si       0.38363    0.92976    0.14730    1.000
    N2342    N        0.39075    0.97092    0.13571    1.000
    Si2343   Si       0.37650    0.97181    0.23022    1.000
    N2344    N        0.38482    0.92756    0.23078    1.000
    N2345    N        0.34606    0.92649    0.16799    1.000
    N2346    N        0.35856    0.82032    0.31852    1.000
    Si2347   Si       0.38490    0.79278    0.33788    1.000
    Si2348   Si       0.38684    0.84890    0.29875    1.000
    N2349    N        0.35601    0.81084    0.24935    1.000
    N2350    N        0.36223    0.87873    0.28008    1.000
    Si2351   Si       0.37101    0.88039    0.36270    1.000
    N2352    N        0.37533    0.98820    0.26995    1.000
    N2353    N        0.35261    0.91478    0.34594    1.000
    N2354    N        0.34896    0.97828    0.33374    1.000
    Si2355   Si       0.34984    0.90773    0.24732    1.000
    Si2356   Si       0.34684    0.81009    0.45630    1.000
    Si2357   Si       0.35951    0.76775    0.39796    1.000
    N2358    N        0.38041    0.80107    0.38045    1.000
    N2359    N        0.38920    0.81576    0.44909    1.000
    N2360    N        0.33827    0.77232    0.43860    1.000
    N2361    N        0.35217    0.95576    0.40172    1.000
    Si2362   Si       0.36533    0.96363    0.48184    1.000
    N2363    N        0.38154    0.93188    0.45867    1.000
    N2364    N        0.36108    0.99986    0.45558    1.000
    Si2365   Si       0.35828    0.91908    0.42336    1.000
    Si2366   Si       0.37136    0.99232    0.41453    1.000
    N2367    N        0.38560    0.89375    0.40075    1.000
    Si2368   Si       0.36764    0.80311    0.59871    1.000
    Si2369   Si       0.36089    0.84055    0.52149    1.000
    N2370    N        0.34976    0.82206    0.56097    1.000
    N2371    N        0.34857    0.88097    0.52421    1.000
    N2372    N        0.36826    0.75978    0.53583    1.000
    N2373    N        0.36149    0.88523    0.59859    1.000
    N2374    N        0.37984    0.95905    0.52234    1.000
    N2375    N        0.36721    0.97693    0.59159    1.000
    Si2376   Si       0.34894    0.96890    0.55391    1.000
    N2377    N        0.34534    0.87662    0.66426    1.000
    N2378    N        0.34819    0.85200    0.72829    1.000
    N2379    N        0.38085    0.82544    0.63248    1.000
    Si2380   Si       0.36957    0.87851    0.70256    1.000
    N2381    N        0.39697    0.78754    0.71952    1.000
    Si2382   Si       0.34070    0.83684    0.64952    1.000
    Si2383   Si       0.37461    0.76346    0.74666    1.000
    Si2384   Si       0.34813    0.90731    0.63456    1.000
    Si2385   Si       0.34453    0.94066    0.72953    1.000
    N2386    N        0.37742    0.98533    0.69181    1.000
    N2387    N        0.38145    0.93459    0.64335    1.000
    N2388    N        0.37836    0.91979    0.71335    1.000
    Si2389   Si       0.39654    0.94525    0.68269    1.000
    Si2390   Si       0.37619    0.81090    0.85526    1.000
    N2391    N        0.38640    0.77631    0.78591    1.000
    N2392    N        0.35587    0.87992    0.79729    1.000
    Si2393   Si       0.39675    0.86854    0.79956    1.000
    N2394    N        0.39877    0.83893    0.83181    1.000
    N2395    N        0.35017    0.97523    0.75496    1.000
    Si2396   Si       0.36050    0.96547    0.83529    1.000
    Si2397   Si       0.38600    0.98889    0.77288    1.000
    N2398    N        0.39467    0.96217    0.80590    1.000
    N2399    N        0.38552    0.94399    0.86495    1.000
    N2400    N        0.34097    0.87563    0.91426    1.000
    N2401    N        0.38762    0.81711    0.89723    1.000
    N2402    N        0.37960    0.84563    0.95704    1.000
    Si2403   Si       0.37911    0.85579    0.91369    1.000
    N2404    N        0.36745    0.76032    0.92216    1.000
    N2405    N        0.37775    0.99753    0.91703    1.000
    N2406    N        0.36612    0.93543    0.93306    1.000
    Si2407   Si       0.39423    0.92559    0.90314    1.000
    Si2408   Si       0.34356    0.97446    0.93608    1.000
    N2409    N        0.42719    0.07092    0.05973    1.000
    Si2410   Si       0.44627    0.04889    0.09174    1.000
    Si2411   Si       0.45051    0.07987    0.02197    1.000
    N2412    N        0.40304    0.12790    0.08578    1.000
    N2413    N        0.43295    0.00933    0.09805    1.000
    N2414    N        0.44196    0.23379    0.10139    1.000
    Si2415   Si       0.40698    0.16942    0.07296    1.000
    N2416    N        0.45126    0.17244    0.06971    1.000
    Si2417   Si       0.43320    0.25476    0.06469    1.000
    Si2418   Si       0.42092    0.11551    0.12476    1.000
    N2419    N        0.43677    0.07607    0.12639    1.000
    Si2420   Si       0.42148    0.10641    0.22550    1.000
    N2421    N        0.43670    0.07857    0.19891    1.000
    N2422    N        0.42440    0.02978    0.16502    1.000
    Si2423   Si       0.41533    0.03770    0.20899    1.000
    Si2424   Si       0.45819    0.06390    0.16358    1.000
    N2425    N        0.44551    0.14415    0.14608    1.000
    N2426    N        0.43697    0.25373    0.23484    1.000
    N2427    N        0.41688    0.14881    0.20976    1.000
    Si2428   Si       0.41087    0.22036    0.12826    1.000
    Si2429   Si       0.40830    0.17195    0.24586    1.000
    Si2430   Si       0.43970    0.17049    0.18036    1.000
    N2431    N        0.41460    0.20350    0.16820    1.000
    N2432    N        0.41701    0.10018    0.30942    1.000
    Si2433   Si       0.44508    0.03300    0.33993    1.000
    N2434    N        0.40648    0.02052    0.32346    1.000
    Si2435   Si       0.44253    0.07674    0.28129    1.000
    N2436    N        0.42202    0.04743    0.25470    1.000
    N2437    N        0.45099    0.11127    0.25629    1.000
    Si2438   Si       0.44107    0.12880    0.33440    1.000
    Si2439   Si       0.41049    0.01225    0.28065    1.000
    N2440    N        0.41547    0.16327    0.34257    1.000
    N2441    N        0.42394    0.22400    0.30510    1.000
    N2442    N        0.44782    0.18593    0.25695    1.000
    Si2443   Si       0.45026    0.22865    0.26809    1.000
    Si2444   Si       0.44655    0.22678    0.34432    1.000
    N2445    N        0.43946    0.05395    0.37796    1.000
    Si2446   Si       0.42624    0.03179    0.41426    1.000
    N2447    N        0.42158    0.08939    0.49321    1.000
    N2448    N        0.46007    0.02289    0.43965    1.000
    N2449    N        0.45848    0.12274    0.37356    1.000
    Si2450   Si       0.44593    0.20550    0.43796    1.000
    N2451    N        0.41064    0.23039    0.44059    1.000
    Si2452   Si       0.40653    0.17746    0.38215    1.000
    N2453    N        0.41500    0.22031    0.37524    1.000
    N2454    N        0.43209    0.17063    0.41660    1.000
    N2455    N        0.43793    0.04450    0.60304    1.000
    Si2456   Si       0.42728    0.05866    0.52509    1.000
    Si2457   Si       0.41874    0.12310    0.59549    1.000
    N2458    N        0.43359    0.02044    0.50668    1.000
    Si2459   Si       0.42714    0.12618    0.51944    1.000
    N2460    N        0.40438    0.12583    0.55545    1.000
    N2461    N        0.46022    0.11132    0.60216    1.000
    N2462    N        0.40732    0.23428    0.58190    1.000
    N2463    N        0.44162    0.18705    0.55181    1.000
    Si2464   Si       0.43085    0.19480    0.51091    1.000
    N2465    N        0.41203    0.16347    0.60948    1.000
    Si2466   Si       0.40669    0.19213    0.57716    1.000
    N2467    N        0.40984    0.23228    0.50970    1.000
    N2468    N        0.40445    0.16141    0.50274    1.000
    N2469    N        0.43498    0.02019    0.67681    1.000
    N2470    N        0.43196    0.10385    0.69535    1.000
    Si2471   Si       0.42909    0.01528    0.63323    1.000
    Si2472   Si       0.40599    0.01354    0.70754    1.000
    Si2473   Si       0.40952    0.23925    0.62472    1.000
    N2474    N        0.42109    0.17147    0.68131    1.000
    N2475    N        0.42591    0.22739    0.71675    1.000
    Si2476   Si       0.44502    0.20788    0.68416    1.000
    N2477    N        0.44436    0.22207    0.64345    1.000
    Si2478   Si       0.42115    0.14141    0.71464    1.000
    N2479    N        0.41538    0.12028    0.84618    1.000
    N2480    N        0.45302    0.05354    0.76838    1.000
    Si2481   Si       0.40968    0.05321    0.76327    1.000
    Si2482   Si       0.45683    0.11035    0.83618    1.000
    N2483    N        0.43770    0.17085    0.81347    1.000
    Si2484   Si       0.44784    0.21477    0.81729    1.000
    N2485    N        0.41322    0.23969    0.82572    1.000
    N2486    N        0.44844    0.14494    0.74617    1.000
    Si2487   Si       0.44686    0.25333    0.74622    1.000
    N2488    N        0.41700    0.13101    0.91390    1.000
    N2489    N        0.43332    0.06478    0.98377    1.000
    N2490    N        0.42946    0.01265    0.88445    1.000
    N2491    N        0.45236    0.07611    0.90919    1.000
    Si2492   Si       0.42739    0.02066    0.98988    1.000
    Si2493   Si       0.46050    0.12086    0.90739    1.000
    Si2494   Si       0.44808    0.21456    0.91488    1.000
    Si2495   Si       0.42680    0.20569    0.97346    1.000
    N2496    N        0.43677    0.24551    0.88871    1.000
    N2497    N        0.40563    0.20200    0.93146    1.000
    N2498    N        0.42290    0.16102    0.97726    1.000
    N2499    N        0.46271    0.22088    0.95650    1.000
    Si2500   Si       0.39592    0.15926    0.94052    1.000
    N2501    N        0.42706    0.29691    0.05765    1.000
    N2502    N        0.41161    0.36794    0.02915    1.000
    Si2503   Si       0.45596    0.31719    0.08542    1.000
    Si2504   Si       0.45494    0.36614    0.02542    1.000
    N2505    N        0.42290    0.41967    0.07626    1.000
    N2506    N        0.41783    0.50032    0.08042    1.000
    Si2507   Si       0.41542    0.43697    0.11489    1.000
    N2508    N        0.45496    0.46756    0.02993    1.000
    Si2509   Si       0.43017    0.50183    0.03667    1.000
    Si2510   Si       0.46020    0.43320    0.05706    1.000
    Si2511   Si       0.44477    0.50885    0.11803    1.000
    N2512    N        0.44142    0.32511    0.12407    1.000
    Si2513   Si       0.43096    0.33720    0.20564    1.000
    Si2514   Si       0.41896    0.36119    0.13338    1.000
    N2515    N        0.40598    0.35821    0.17553    1.000
    N2516    N        0.39780    0.31229    0.21547    1.000
    Si2517   Si       0.40946    0.47709    0.21960    1.000
    N2518    N        0.44257    0.46583    0.13077    1.000
    N2519    N        0.45081    0.46964    0.21203    1.000
    N2520    N        0.41838    0.40639    0.22211    1.000
    N2521    N        0.43201    0.40462    0.14139    1.000
    Si2522   Si       0.41040    0.40042    0.18075    1.000
    N2523    N        0.42568    0.33758    0.35105    1.000
    Si2524   Si       0.42479    0.29561    0.35512    1.000
    N2525    N        0.45708    0.26929    0.34630    1.000
    N2526    N        0.44314    0.34961    0.24629    1.000
    Si2527   Si       0.41762    0.38307    0.25818    1.000
    Si2528   Si       0.40144    0.36987    0.33433    1.000
    N2529    N        0.41973    0.39367    0.30123    1.000
    N2530    N        0.43178    0.44990    0.34121    1.000
    Si2531   Si       0.44957    0.42430    0.31032    1.000
    N2532    N        0.41272    0.28379    0.39707    1.000
    Si2533   Si       0.41387    0.37003    0.46360    1.000
    Si2534   Si       0.43203    0.36254    0.38731    1.000
    N2535    N        0.41378    0.29217    0.46495    1.000
    Si2536   Si       0.43263    0.30569    0.42817    1.000
    N2537    N        0.42376    0.34775    0.42875    1.000
    N2538    N        0.42264    0.45911    0.48425    1.000
    N2539    N        0.45184    0.38682    0.47819    1.000
    Si2540   Si       0.41117    0.48941    0.40847    1.000
    Si2541   Si       0.42886    0.50122    0.47845    1.000
    N2542    N        0.45337    0.48811    0.40006    1.000
    Si2543   Si       0.44972    0.42627    0.49481    1.000
    Si2544   Si       0.44293    0.34455    0.59040    1.000
    N2545    N        0.41039    0.29503    0.53472    1.000
    Si2546   Si       0.43311    0.30992    0.50158    1.000
    N2547    N        0.40494    0.34954    0.57065    1.000
    N2548    N        0.40388    0.34447    0.49707    1.000
    N2549    N        0.41287    0.49147    0.54610    1.000
    Si2550   Si       0.44064    0.49097    0.57931    1.000
    Si2551   Si       0.42541    0.41322    0.57756    1.000
    N2552    N        0.43095    0.42076    0.53293    1.000
    N2553    N        0.44272    0.45091    0.59562    1.000
    Si2554   Si       0.40079    0.45229    0.52882    1.000
    N2555    N        0.42753    0.32955    0.62810    1.000
    Si2556   Si       0.41438    0.34729    0.69818    1.000
    N2557    N        0.45432    0.33254    0.69350    1.000
    N2558    N        0.40694    0.35359    0.73936    1.000
    N2559    N        0.44935    0.42492    0.66346    1.000
    Si2560   Si       0.41058    0.41060    0.65064    1.000
    N2561    N        0.44624    0.40712    0.73611    1.000
    N2562    N        0.42346    0.49647    0.73283    1.000
    N2563    N        0.41207    0.27785    0.76371    1.000
    N2564    N        0.44188    0.32870    0.80527    1.000
    Si2565   Si       0.41717    0.36318    0.81447    1.000
    N2566    N        0.41527    0.36976    0.85837    1.000
    N2567    N        0.39550    0.43538    0.84460    1.000
    N2568    N        0.44379    0.45226    0.78411    1.000
    N2569    N        0.41253    0.49102    0.82400    1.000
    Si2570   Si       0.40612    0.47284    0.86397    1.000
    N2571    N        0.40785    0.39900    0.79028    1.000
    Si2572   Si       0.40322    0.44246    0.80124    1.000
    Si2573   Si       0.45320    0.49415    0.80764    1.000
    Si2574   Si       0.40703    0.39631    0.74675    1.000
    N2575    N        0.43588    0.28498    0.96778    1.000
    N2576    N        0.43607    0.31617    0.90939    1.000
    Si2577   Si       0.43712    0.33047    0.95317    1.000
    N2578    N        0.44981    0.37365    0.93349    1.000
    Si2579   Si       0.40689    0.32951    0.88128    1.000
    Si2580   Si       0.43540    0.47785    0.93363    1.000
    Si2581   Si       0.42679    0.40705    0.94211    1.000
    N2582    N        0.44680    0.44345    0.95794    1.000
    N2583    N        0.44054    0.47490    0.89071    1.000
    N2584    N        0.43686    0.58988    0.08228    1.000
    Si2585   Si       0.42423    0.57022    0.00647    1.000
    N2586    N        0.44307    0.54282    0.03159    1.000
    Si2587   Si       0.40239    0.57290    0.10693    1.000
    N2588    N        0.40522    0.65302    0.07262    1.000
    Si2589   Si       0.44199    0.63201    0.07952    1.000
    N2590    N        0.44631    0.68167    0.00655    1.000
    Si2591   Si       0.42336    0.71722    0.00407    1.000
    N2592    N        0.43861    0.74035    0.08818    1.000
    N2593    N        0.44205    0.75245    0.02064    1.000
    N2594    N        0.44327    0.64887    0.11960    1.000
    Si2595   Si       0.41935    0.54669    0.23742    1.000
    N2596    N        0.41355    0.53646    0.13052    1.000
    Si2597   Si       0.45498    0.54760    0.18442    1.000
    Si2598   Si       0.45455    0.61683    0.19658    1.000
    N2599    N        0.40895    0.61756    0.20597    1.000
    N2600    N        0.41107    0.55232    0.19414    1.000
    Si2601   Si       0.44609    0.67429    0.15500    1.000
    N2602    N        0.40327    0.66965    0.16100    1.000
    Si2603   Si       0.43644    0.56964    0.30248    1.000
    N2604    N        0.41412    0.57846    0.26561    1.000
    N2605    N        0.40974    0.56112    0.33480    1.000
    Si2606   Si       0.42009    0.61819    0.24943    1.000
    Si2607   Si       0.40189    0.59266    0.36204    1.000
    N2608    N        0.40636    0.50883    0.25063    1.000
    N2609    N        0.45866    0.53486    0.29321    1.000
    Si2610   Si       0.40289    0.73558    0.29445    1.000
    Si2611   Si       0.45262    0.70148    0.35327    1.000
    N2612    N        0.43402    0.71743    0.31825    1.000
    N2613    N        0.40669    0.65153    0.27094    1.000
    N2614    N        0.42918    0.62538    0.36825    1.000
    N2615    N        0.41427    0.52150    0.44002    1.000
    N2616    N        0.44064    0.58423    0.46100    1.000
    Si2617   Si       0.43449    0.55720    0.42592    1.000
    N2618    N        0.40012    0.69941    0.44904    1.000
    N2619    N        0.40458    0.75515    0.41397    1.000
    Si2620   Si       0.41995    0.65181    0.40169    1.000
    N2621    N        0.42392    0.69303    0.38486    1.000
    Si2622   Si       0.44297    0.69038    0.45680    1.000
    N2623    N        0.44497    0.64934    0.43724    1.000
    Si2624   Si       0.43640    0.75597    0.44275    1.000
    Si2625   Si       0.42491    0.61937    0.55810    1.000
    N2626    N        0.43259    0.51860    0.61277    1.000
    N2627    N        0.45328    0.56812    0.52974    1.000
    Si2628   Si       0.42257    0.57284    0.49879    1.000
    N2629    N        0.40645    0.60256    0.59436    1.000
    N2630    N        0.40241    0.60324    0.52077    1.000
    N2631    N        0.40309    0.53238    0.49937    1.000
    N2632    N        0.41665    0.66341    0.55655    1.000
    N2633    N        0.43075    0.73360    0.54334    1.000
    Si2634   Si       0.44318    0.69253    0.53995    1.000
    N2635    N        0.45387    0.68594    0.49783    1.000
    N2636    N        0.44517    0.65028    0.62440    1.000
    Si2637   Si       0.42240    0.52566    0.69990    1.000
    N2638    N        0.40712    0.62210    0.67545    1.000
    Si2639   Si       0.41044    0.62862    0.63199    1.000
    N2640    N        0.45920    0.53367    0.67998    1.000
    N2641    N        0.44775    0.63047    0.73304    1.000
    N2642    N        0.42590    0.68893    0.69206    1.000
    N2643    N        0.41007    0.74356    0.64404    1.000
    Si2644   Si       0.40243    0.69772    0.72764    1.000
    Si2645   Si       0.44131    0.72257    0.66737    1.000
    Si2646   Si       0.43968    0.64677    0.69266    1.000
    N2647    N        0.45795    0.74773    0.69724    1.000
    Si2648   Si       0.42547    0.57754    0.81367    1.000
    N2649    N        0.44874    0.59857    0.84151    1.000
    N2650    N        0.44757    0.54258    0.80465    1.000
    N2651    N        0.40954    0.59734    0.77708    1.000
    Si2652   Si       0.41996    0.63650    0.76478    1.000
    N2653    N        0.43227    0.65878    0.79968    1.000
    N2654    N        0.44463    0.72370    0.83146    1.000
    Si2655   Si       0.42508    0.70261    0.79660    1.000
    N2656    N        0.43169    0.71739    0.75630    1.000
    Si2657   Si       0.44010    0.75685    0.85718    1.000
    N2658    N        0.42181    0.54943    0.96958    1.000
    Si2659   Si       0.43895    0.59526    0.88272    1.000
    N2660    N        0.44586    0.56049    0.90425    1.000
    Si2661   Si       0.45615    0.54736    0.94360    1.000
    N2662    N        0.44751    0.60411    0.99604    1.000
    N2663    N        0.41567    0.72529    0.96147    1.000
    Si2664   Si       0.43055    0.64515    0.98507    1.000
    N2665    N        0.43308    0.75766    0.90085    1.000
    N2666    N        0.41999    0.64841    0.94245    1.000
    Si2667   Si       0.45089    0.73208    0.93270    1.000
    N2668    N        0.44243    0.82379    0.07589    1.000
    Si2669   Si       0.40784    0.84076    0.05691    1.000
    N2670    N        0.40277    0.82028    0.01939    1.000
    Si2671   Si       0.44718    0.82245    0.12092    1.000
    N2672    N        0.41683    0.88281    0.04989    1.000
    Si2673   Si       0.43838    0.89930    0.01489    1.000
    Si2674   Si       0.41354    0.91263    0.08273    1.000
    Si2675   Si       0.44303    0.98178    0.06738    1.000
    N2676    N        0.41559    0.95065    0.06018    1.000
    N2677    N        0.43406    0.99856    0.02679    1.000
    Si2678   Si       0.40698    0.96446    0.01948    1.000
    N2679    N        0.45344    0.91858    0.10274    1.000
    N2680    N        0.41662    0.80772    0.20638    1.000
    Si2681   Si       0.42821    0.77617    0.17994    1.000
    Si2682   Si       0.42913    0.84441    0.18734    1.000
    N2683    N        0.41767    0.84567    0.14403    1.000
    N2684    N        0.42921    0.87245    0.22078    1.000
    N2685    N        0.44412    0.78404    0.13954    1.000
    N2686    N        0.41452    0.99283    0.21876    1.000
    N2687    N        0.42197    0.92017    0.16989    1.000
    Si2688   Si       0.45722    0.92920    0.14402    1.000
    Si2689   Si       0.45315    0.98045    0.23371    1.000
    Si2690   Si       0.42216    0.91536    0.21337    1.000
    N2691    N        0.45218    0.93815    0.23489    1.000
    Si2692   Si       0.42760    0.99551    0.13953    1.000
    N2693    N        0.42865    0.79878    0.33199    1.000
    N2694    N        0.41821    0.83274    0.27384    1.000
    Si2695   Si       0.44269    0.79606    0.28855    1.000
    Si2696   Si       0.43777    0.83678    0.35267    1.000
    N2697    N        0.41102    0.77118    0.26956    1.000
    N2698    N        0.40467    0.86705    0.33467    1.000
    Si2699   Si       0.45310    0.85073    0.25136    1.000
    N2700    N        0.44742    0.98888    0.27838    1.000
    Si2701   Si       0.43990    0.89700    0.33370    1.000
    N2702    N        0.45125    0.92751    0.30474    1.000
    N2703    N        0.43242    0.77067    0.48371    1.000
    N2704    N        0.42924    0.84482    0.39368    1.000
    Si2705   Si       0.42047    0.81435    0.47933    1.000
    Si2706   Si       0.41147    0.80760    0.41242    1.000
    N2707    N        0.45035    0.79308    0.42723    1.000
    N2708    N        0.45403    0.84619    0.48515    1.000
    N2709    N        0.44226    0.89468    0.44413    1.000
    Si2710   Si       0.45015    0.98054    0.43456    1.000
    N2711    N        0.44026    0.95934    0.47018    1.000
    Si2712   Si       0.42680    0.88694    0.40450    1.000
    N2713    N        0.44640    0.91338    0.37469    1.000
    N2714    N        0.41313    0.98947    0.41505    1.000
    Si2715   Si       0.42087    0.92069    0.47100    1.000
    N2716    N        0.41942    0.85671    0.56554    1.000
    Si2717   Si       0.42044    0.81487    0.55563    1.000
    Si2718   Si       0.43747    0.86455    0.52381    1.000
    N2719    N        0.40586    0.78504    0.58546    1.000
    N2720    N        0.40159    0.82922    0.51517    1.000
    N2721    N        0.45513    0.79963    0.53671    1.000
    Si2722   Si       0.45412    0.76153    0.51897    1.000
    Si2723   Si       0.43025    0.77600    0.62092    1.000
    Si2724   Si       0.40601    0.88287    0.59516    1.000
    Si2725   Si       0.41667    0.93589    0.53787    1.000
    N2726    N        0.42232    0.90385    0.51060    1.000
    N2727    N        0.45397    0.96044    0.53664    1.000
    N2728    N        0.41060    0.92440    0.57892    1.000
    Si2729   Si       0.45470    0.98509    0.50144    1.000
    Si2730   Si       0.39996    0.95376    0.60881    1.000
    Si2731   Si       0.41522    0.82789    0.72621    1.000
    N2732    N        0.42852    0.87272    0.63114    1.000
    N2733    N        0.44410    0.80456    0.65198    1.000
    Si2734   Si       0.41674    0.83931    0.65441    1.000
    N2735    N        0.40410    0.85327    0.69264    1.000
    N2736    N        0.45593    0.81406    0.72324    1.000
    N2737    N        0.43624    0.97387    0.62129    1.000
    N2738    N        0.43719    0.94977    0.69652    1.000
    Si2739   Si       0.41325    0.80807    0.80053    1.000
    Si2740   Si       0.42298    0.86707    0.85617    1.000
    N2741    N        0.40866    0.84094    0.76779    1.000
    N2742    N        0.45820    0.81003    0.79577    1.000
    N2743    N        0.40370    0.77830    0.84400    1.000
    N2744    N        0.41900    0.89638    0.82398    1.000
    Si2745   Si       0.41764    0.93864    0.83228    1.000
    N2746    N        0.41949    0.00030    0.74608    1.000
    N2747    N        0.45566    0.95110    0.84862    1.000
    Si2748   Si       0.40418    0.78558    0.91982    1.000
    Si2749   Si       0.41350    0.83501    0.97961    1.000
    N2750    N        0.42515    0.80007    0.95685    1.000
    N2751    N        0.44209    0.86724    0.98581    1.000
    Si2752   Si       0.45255    0.77905    0.98604    1.000
    Si2753   Si       0.44410    0.94930    0.95831    1.000
    N2754    N        0.40462    0.88329    0.89241    1.000
    Si2755   Si       0.41915    0.98802    0.91820    1.000
    N2756    N        0.42186    0.93537    0.99245    1.000
    N2757    N        0.43441    0.94670    0.91659    1.000
    N2758    N        0.43594    0.99369    0.95770    1.000
    N2759    N        0.49112    0.06514    0.02569    1.000
    N2760    N        0.49048    0.03925    0.09084    1.000
    N2761    N        0.49681    0.11076    0.08232    1.000
    Si2762   Si       0.50677    0.07127    0.06599    1.000
    N2763    N        0.45859    0.12260    0.02170    1.000
    Si2764   Si       0.47629    0.13964    0.05601    1.000
    N2765    N        0.46797    0.23911    0.04482    1.000
    Si2766   Si       0.47044    0.20938    0.07990    1.000
    N2767    N        0.50952    0.22281    0.09720    1.000
    Si2768   Si       0.50468    0.25116    0.02757    1.000
    N2769    N        0.51586    0.16055    0.05450    1.000
    N2770    N        0.49217    0.09660    0.16426    1.000
    N2771    N        0.48953    0.03493    0.16620    1.000
    N2772    N        0.49941    0.23093    0.22592    1.000
    N2773    N        0.48186    0.16470    0.19083    1.000
    Si2774   Si       0.51267    0.19316    0.20416    1.000
    N2775    N        0.51315    0.15780    0.12912    1.000
    Si2776   Si       0.48699    0.13833    0.15564    1.000
    N2777    N        0.46825    0.05694    0.31101    1.000
    Si2778   Si       0.50971    0.04887    0.29589    1.000
    N2779    N        0.50954    0.03849    0.25271    1.000
    Si2780   Si       0.51371    0.12331    0.30351    1.000
    N2781    N        0.47397    0.14022    0.31066    1.000
    N2782    N        0.48487    0.20543    0.35000    1.000
    Si2783   Si       0.47021    0.14986    0.26671    1.000
    N2784    N        0.48309    0.24755    0.28819    1.000
    N2785    N        0.51373    0.14336    0.26384    1.000
    Si2786   Si       0.51636    0.23497    0.26684    1.000
    N2787    N        0.49619    0.07406    0.48261    1.000
    Si2788   Si       0.49382    0.03420    0.46398    1.000
    Si2789   Si       0.46825    0.08467    0.39338    1.000
    N2790    N        0.50845    0.07159    0.38892    1.000
    N2791    N        0.46364    0.10720    0.43270    1.000
    Si2792   Si       0.46280    0.09851    0.47516    1.000
    N2793    N        0.50109    0.16869    0.41361    1.000
    Si2794   Si       0.46444    0.14431    0.40956    1.000
    Si2795   Si       0.50711    0.21077    0.38991    1.000
    N2796    N        0.46033    0.19268    0.47834    1.000
    N2797    N        0.47598    0.23065    0.41729    1.000
    N2798    N        0.50262    0.05350    0.59849    1.000
    Si2799   Si       0.50732    0.06952    0.52669    1.000
    Si2800   Si       0.46635    0.07161    0.58646    1.000
    N2801    N        0.46559    0.07373    0.54269    1.000
    Si2802   Si       0.51391    0.01873    0.57667    1.000
    N2803    N        0.46742    0.13426    0.50632    1.000
    N2804    N        0.52152    0.03063    0.53671    1.000
    Si2805   Si       0.48013    0.19612    0.56895    1.000
    N2806    N        0.49845    0.17221    0.60048    1.000
    N2807    N        0.50435    0.19388    0.53293    1.000
    N2808    N        0.47837    0.23625    0.58566    1.000
    Si2809   Si       0.49183    0.16843    0.49781    1.000
    Si2810   Si       0.51734    0.07328    0.63417    1.000
    N2811    N        0.49049    0.10017    0.72801    1.000
    Si2812   Si       0.47537    0.10165    0.68798    1.000
    Si2813   Si       0.47730    0.02561    0.67903    1.000
    N2814    N        0.48880    0.06664    0.66457    1.000
    N2815    N        0.48731    0.01761    0.72055    1.000
    Si2816   Si       0.50642    0.24217    0.71125    1.000
    Si2817   Si       0.51177    0.16862    0.67962    1.000
    N2818    N        0.48635    0.13795    0.66536    1.000
    Si2819   Si       0.48323    0.23995    0.62979    1.000
    Si2820   Si       0.49142    0.13438    0.61996    1.000
    N2821    N        0.49090    0.20624    0.69118    1.000
    Si2822   Si       0.47226    0.04491    0.80591    1.000
    N2823    N        0.47780    0.11053    0.79640    1.000
    N2824    N        0.46215    0.06547    0.84300    1.000
    Si2825   Si       0.45472    0.09772    0.75783    1.000
    N2826    N        0.51552    0.05115    0.79972    1.000
    Si2827   Si       0.46177    0.00517    0.75561    1.000
    N2828    N        0.48011    0.21243    0.84524    1.000
    Si2829   Si       0.50606    0.21698    0.78103    1.000
    N2830    N        0.50207    0.17540    0.79136    1.000
    Si2831   Si       0.50622    0.24777    0.84764    1.000
    N2832    N        0.46346    0.22896    0.77780    1.000
    Si2833   Si       0.46595    0.15329    0.78486    1.000
    N2834    N        0.47617    0.13314    0.86726    1.000
    Si2835   Si       0.49258    0.17506    0.86559    1.000
    N2836    N        0.49687    0.05247    0.95951    1.000
    N2837    N        0.47593    0.11707    0.94881    1.000
    N2838    N        0.50054    0.02613    0.89401    1.000
    Si2839   Si       0.46008    0.07510    0.95325    1.000
    Si2840   Si       0.46132    0.04353    0.88255    1.000
    N2841    N        0.47900    0.18536    0.90703    1.000
    Si2842   Si       0.46110    0.14257    0.98339    1.000
    N2843    N        0.49570    0.17062    0.98588    1.000
    Si2844   Si       0.50253    0.18983    0.94575    1.000
    N2845    N        0.48590    0.29235    0.10351    1.000
    N2846    N        0.47377    0.35036    0.06303    1.000
    Si2847   Si       0.50989    0.36580    0.08854    1.000
    N2848    N        0.48914    0.43537    0.08835    1.000
    N2849    N        0.46823    0.40704    0.02173    1.000
    Si2850   Si       0.48013    0.30652    0.14586    1.000
    N2851    N        0.48565    0.27006    0.17046    1.000
    N2852    N        0.49700    0.30093    0.23191    1.000
    Si2853   Si       0.49889    0.35950    0.16265    1.000
    Si2854   Si       0.47675    0.26565    0.21499    1.000
    N2855    N        0.46710    0.33629    0.18109    1.000
    N2856    N        0.49478    0.38298    0.12469    1.000
    Si2857   Si       0.48179    0.46503    0.24078    1.000
    N2858    N        0.49387    0.44575    0.15967    1.000
    Si2859   Si       0.47489    0.42138    0.12678    1.000
    N2860    N        0.51588    0.44208    0.22761    1.000
    Si2861   Si       0.46279    0.47326    0.17054    1.000
    Si2862   Si       0.48939    0.27943    0.31689    1.000
    Si2863   Si       0.48216    0.33256    0.25765    1.000
    N2864    N        0.47853    0.31419    0.29576    1.000
    N2865    N        0.50881    0.36702    0.25890    1.000
    N2866    N        0.49013    0.48421    0.33498    1.000
    N2867    N        0.48635    0.40312    0.32320    1.000
    Si2868   Si       0.47470    0.49393    0.29688    1.000
    N2869    N        0.50179    0.50043    0.26253    1.000
    Si2870   Si       0.46689    0.46547    0.36595    1.000
    N2871    N        0.46314    0.45329    0.27967    1.000
    Si2872   Si       0.49741    0.39966    0.36494    1.000
    Si2873   Si       0.49795    0.26687    0.42820    1.000
    N2874    N        0.47498    0.36777    0.38814    1.000
    Si2875   Si       0.48601    0.36054    0.48242    1.000
    N2876    N        0.47539    0.30380    0.42104    1.000
    Si2877   Si       0.49833    0.33921    0.41138    1.000
    N2878    N        0.51120    0.35767    0.44785    1.000
    N2879    N        0.47358    0.31914    0.49484    1.000
    N2880    N        0.51537    0.49777    0.44837    1.000
    Si2881   Si       0.50217    0.48266    0.48619    1.000
    N2882    N        0.48632    0.43413    0.38641    1.000
    N2883    N        0.46842    0.50938    0.49126    1.000
    N2884    N        0.48854    0.44247    0.49406    1.000
    Si2885   Si       0.48970    0.27510    0.57007    1.000
    N2886    N        0.47254    0.31518    0.57644    1.000
    Si2887   Si       0.50942    0.32665    0.59906    1.000
    Si2888   Si       0.50920    0.29452    0.49940    1.000
    N2889    N        0.50327    0.26552    0.53218    1.000
    N2890    N        0.51736    0.37438    0.50980    1.000
    Si2891   Si       0.50390    0.39918    0.58297    1.000
    N2892    N        0.46064    0.38525    0.58590    1.000
    N2893    N        0.50553    0.42178    0.62007    1.000
    Si2894   Si       0.51095    0.37706    0.73908    1.000
    N2895    N        0.49526    0.34638    0.63518    1.000
    Si2896   Si       0.48307    0.31607    0.71930    1.000
    N2897    N        0.47928    0.27349    0.72444    1.000
    Si2898   Si       0.46409    0.32019    0.65186    1.000
    N2899    N        0.47797    0.27911    0.64731    1.000
    Si2900   Si       0.46845    0.44374    0.63118    1.000
    N2901    N        0.48203    0.48161    0.64705    1.000
    Si2902   Si       0.47030    0.41831    0.70083    1.000
    N2903    N        0.50286    0.39005    0.69886    1.000
    Si2904   Si       0.50666    0.48268    0.68514    1.000
    N2905    N        0.48332    0.45951    0.71324    1.000
    Si2906   Si       0.47931    0.34852    0.79649    1.000
    N2907    N        0.48757    0.28692    0.85623    1.000
    N2908    N        0.48695    0.34390    0.75257    1.000
    Si2909   Si       0.50701    0.32589    0.85375    1.000
    N2910    N        0.51537    0.34049    0.81446    1.000
    N2911    N        0.46216    0.38564    0.81326    1.000
    N2912    N        0.50368    0.40821    0.76839    1.000
    N2913    N        0.48425    0.49026    0.83776    1.000
    Si2914   Si       0.46152    0.38841    0.85645    1.000
    N2915    N        0.47983    0.50151    0.77103    1.000
    N2916    N        0.48279    0.42627    0.86991    1.000
    Si2917   Si       0.46226    0.41324    0.77786    1.000
    Si2918   Si       0.45720    0.47493    0.74732    1.000
    N2919    N        0.48401    0.35557    0.87493    1.000
    Si2920   Si       0.50291    0.32210    0.98240    1.000
    Si2921   Si       0.48906    0.36541    0.91672    1.000
    N2922    N        0.48787    0.26921    0.92247    1.000
    Si2923   Si       0.47141    0.26265    0.96367    1.000
    N2924    N        0.50965    0.33388    0.93848    1.000
    N2925    N        0.49729    0.27888    0.99357    1.000
    Si2926   Si       0.46162    0.28274    0.89076    1.000
    N2927    N        0.46331    0.34095    0.99061    1.000
    N2928    N        0.46858    0.50555    0.94549    1.000
    N2929    N        0.50579    0.45482    0.97851    1.000
    N2930    N        0.51620    0.47100    0.90438    1.000
    Si2931   Si       0.46790    0.44286    0.99469    1.000
    Si2932   Si       0.50749    0.48599    0.94759    1.000
    Si2933   Si       0.47920    0.47104    0.87518    1.000
    N2934    N        0.47670    0.52755    0.09286    1.000
    N2935    N        0.50529    0.57576    0.06971    1.000
    Si2936   Si       0.46351    0.56011    0.06612    1.000
    Si2937   Si       0.51094    0.61490    0.05183    1.000
    Si2938   Si       0.51750    0.54260    0.09500    1.000
    N2939    N        0.47588    0.64074    0.05459    1.000
    Si2940   Si       0.48303    0.67743    0.03235    1.000
    N2941    N        0.49366    0.71299    0.05489    1.000
    Si2942   Si       0.46638    0.74670    0.05589    1.000
    N2943    N        0.47624    0.58346    0.17537    1.000
    N2944    N        0.46855    0.51452    0.16305    1.000
    N2945    N        0.46098    0.54244    0.22824    1.000
    N2946    N        0.46380    0.61651    0.23974    1.000
    Si2947   Si       0.51939    0.58228    0.16346    1.000
    Si2948   Si       0.48113    0.72813    0.19487    1.000
    Si2949   Si       0.51297    0.65102    0.17436    1.000
    N2950    N        0.50396    0.74814    0.12144    1.000
    Si2951   Si       0.46098    0.74687    0.12608    1.000
    N2952    N        0.48758    0.70075    0.22748    1.000
    N2953    N        0.47153    0.65334    0.18074    1.000
    N2954    N        0.45721    0.71677    0.15851    1.000
    Si2955   Si       0.48758    0.61412    0.27305    1.000
    N2956    N        0.51261    0.57983    0.26565    1.000
    Si2957   Si       0.48909    0.54327    0.26065    1.000
    N2958    N        0.49418    0.59976    0.36470    1.000
    Si2959   Si       0.46385    0.62411    0.34627    1.000
    N2960    N        0.46325    0.60394    0.30744    1.000
    N2961    N        0.47539    0.66734    0.34385    1.000
    N2962    N        0.48088    0.73727    0.36465    1.000
    N2963    N        0.50549    0.65292    0.27719    1.000
    Si2964   Si       0.51136    0.66706    0.31693    1.000
    Si2965   Si       0.48927    0.50983    0.41385    1.000
    Si2966   Si       0.46888    0.61595    0.45517    1.000
    N2967    N        0.50569    0.60576    0.43467    1.000
    N2968    N        0.47475    0.55069    0.40968    1.000
    Si2969   Si       0.50582    0.57948    0.40006    1.000
    N2970    N        0.48478    0.62596    0.49345    1.000
    Si2971   Si       0.50648    0.73259    0.42569    1.000
    N2972    N        0.46471    0.72285    0.44100    1.000
    Si2973   Si       0.47746    0.53292    0.52784    1.000
    Si2974   Si       0.48727    0.59560    0.52563    1.000
    Si2975   Si       0.51319    0.51780    0.58977    1.000
    N2976    N        0.50999    0.55665    0.50894    1.000
    N2977    N        0.46813    0.62199    0.56070    1.000
    N2978    N        0.47690    0.51123    0.56626    1.000
    Si2979   Si       0.49733    0.65325    0.56751    1.000
    N2980    N        0.47528    0.69569    0.57027    1.000
    N2981    N        0.49375    0.74327    0.51898    1.000
    Si2982   Si       0.48241    0.72542    0.60119    1.000
    N2983    N        0.51348    0.65582    0.60968    1.000
    Si2984   Si       0.51011    0.71449    0.54645    1.000
    N2985    N        0.51609    0.67374    0.53144    1.000
    Si2986   Si       0.49294    0.66763    0.49585    1.000
    Si2987   Si       0.51611    0.62579    0.68846    1.000
    N2988    N        0.50228    0.54073    0.62491    1.000
    Si2989   Si       0.46693    0.52132    0.63909    1.000
    Si2990   Si       0.48954    0.55375    0.70329    1.000
    N2991    N        0.51031    0.58366    0.67858    1.000
    N2992    N        0.48442    0.56689    0.74461    1.000
    N2993    N        0.51568    0.63183    0.73059    1.000
    N2994    N        0.47309    0.71004    0.64072    1.000
    N2995    N        0.48183    0.64852    0.67651    1.000
    Si2996   Si       0.48157    0.66581    0.63697    1.000
    Si2997   Si       0.46719    0.73123    0.73525    1.000
    Si2998   Si       0.48437    0.54284    0.78028    1.000
    N2999    N        0.48853    0.62155    0.79072    1.000
    Si3000   Si       0.48294    0.60998    0.74954    1.000
    N3001    N        0.48175    0.66467    0.84482    1.000
    Si3002   Si       0.48334    0.70558    0.83794    1.000
    N3003    N        0.50932    0.72910    0.81229    1.000
    Si3004   Si       0.46015    0.63579    0.82067    1.000
    N3005    N        0.49942    0.70264    0.74678    1.000
    Si3006   Si       0.51143    0.75529    0.84677    1.000
    Si3007   Si       0.52058    0.73440    0.77261    1.000
    N3008    N        0.49291    0.56974    0.95505    1.000
    Si3009   Si       0.48886    0.60312    0.98247    1.000
    N3010    N        0.47031    0.62346    0.89684    1.000
    N3011    N        0.50499    0.72212    0.87192    1.000
    Si3012   Si       0.50452    0.63989    0.87290    1.000
    Si3013   Si       0.50891    0.70065    0.90774    1.000
    N3014    N        0.46935    0.69407    0.92185    1.000
    N3015    N        0.48780    0.64132    0.96090    1.000
    N3016    N        0.47671    0.75315    0.96065    1.000
    Si3017   Si       0.46076    0.65260    0.92840    1.000
    N3018    N        0.49230    0.78116    0.06686    1.000
    Si3019   Si       0.47671    0.81567    0.04852    1.000
    N3020    N        0.47361    0.81348    0.00433    1.000
    N3021    N        0.50848    0.84318    0.05889    1.000
    N3022    N        0.51154    0.87335    0.99769    1.000
    Si3023   Si       0.50608    0.91733    0.00262    1.000
    N3024    N        0.48437    0.97323    0.07204    1.000
    Si3025   Si       0.48503    0.93056    0.07340    1.000
    N3026    N        0.47524    0.91599    0.03353    1.000
    Si3027   Si       0.51126    0.00039    0.09562    1.000
    N3028    N        0.48533    0.84107    0.12267    1.000
    N3029    N        0.47412    0.83977    0.18822    1.000
    Si3030   Si       0.50063    0.86109    0.15996    1.000
    Si3031   Si       0.48464    0.80297    0.21351    1.000
    N3032    N        0.46567    0.76715    0.20193    1.000
    Si3033   Si       0.49426    0.99225    0.17013    1.000
    N3034    N        0.49385    0.90490    0.14982    1.000
    N3035    N        0.49164    0.98142    0.21340    1.000
    N3036    N        0.46082    0.97205    0.15139    1.000
    N3037    N        0.47745    0.77176    0.30476    1.000
    Si3038   Si       0.50244    0.83778    0.34373    1.000
    Si3039   Si       0.50620    0.79226    0.28051    1.000
    N3040    N        0.46772    0.86340    0.33639    1.000
    N3041    N        0.47445    0.81148    0.25519    1.000
    N3042    N        0.47987    0.80864    0.36680    1.000
    N3043    N        0.48276    0.87832    0.26463    1.000
    Si3044   Si       0.46681    0.77267    0.34560    1.000
    N3045    N        0.50617    0.94669    0.27763    1.000
    N3046    N        0.50092    0.94709    0.34457    1.000
    Si3047   Si       0.47343    0.92067    0.26731    1.000
    N3048    N        0.46816    0.99744    0.34380    1.000
    Si3049   Si       0.46528    0.96739    0.31091    1.000
    Si3050   Si       0.51195    0.98901    0.34660    1.000
    N3051    N        0.50013    0.84485    0.43387    1.000
    N3052    N        0.50069    0.79761    0.48279    1.000
    Si3053   Si       0.48662    0.80768    0.40934    1.000
    Si3054   Si       0.47657    0.87249    0.45786    1.000
    N3055    N        0.51582    0.77546    0.41459    1.000
    N3056    N        0.50911    0.90408    0.40627    1.000
    N3057    N        0.50728    0.89951    0.47522    1.000
    Si3058   Si       0.48432    0.93311    0.38292    1.000
    N3059    N        0.49466    0.99858    0.48922    1.000
    N3060    N        0.48377    0.96524    0.41291    1.000
    Si3061   Si       0.48483    0.82335    0.51828    1.000
    N3062    N        0.47975    0.86251    0.53828    1.000
    N3063    N        0.49370    0.86068    0.61126    1.000
    Si3064   Si       0.50511    0.78015    0.58051    1.000
    N3065    N        0.46637    0.76559    0.59958    1.000
    Si3066   Si       0.49775    0.88278    0.57360    1.000
    N3067    N        0.48890    0.98539    0.58538    1.000
    Si3068   Si       0.48920    0.95311    0.55842    1.000
    N3069    N        0.48290    0.92235    0.58707    1.000
    Si3070   Si       0.50138    0.86600    0.71593    1.000
    N3071    N        0.50655    0.79314    0.67581    1.000
    Si3072   Si       0.46477    0.78936    0.68732    1.000
    Si3073   Si       0.50784    0.82943    0.64279    1.000
    N3074    N        0.48466    0.85936    0.67420    1.000
    Si3075   Si       0.47668    0.93360    0.69603    1.000
    Si3076   Si       0.47951    0.96197    0.62231    1.000
    N3077    N        0.49191    0.99484    0.65283    1.000
    N3078    N        0.47713    0.92446    0.65216    1.000
    Si3079   Si       0.47055    0.88438    0.63914    1.000
    N3080    N        0.48401    0.90318    0.72841    1.000
    N3081    N        0.51661    0.95136    0.69857    1.000
    Si3082   Si       0.47785    0.81950    0.83377    1.000
    Si3083   Si       0.48066    0.80673    0.75827    1.000
    N3084    N        0.47633    0.77973    0.85072    1.000
    N3085    N        0.49071    0.76416    0.75706    1.000
    N3086    N        0.50740    0.84087    0.75578    1.000
    N3087    N        0.51950    0.82393    0.82152    1.000
    N3088    N        0.46037    0.84731    0.86237    1.000
    Si3089   Si       0.50321    0.92828    0.75937    1.000
    Si3090   Si       0.48425    0.96717    0.81986    1.000
    N3091    N        0.50596    0.93103    0.80389    1.000
    N3092    N        0.48437    0.96637    0.75275    1.000
    N3093    N        0.46514    0.00145    0.80213    1.000
    Si3094   Si       0.48679    0.85781    0.89542    1.000
    Si3095   Si       0.48106    0.84777    0.97878    1.000
    N3096    N        0.49358    0.84505    0.93712    1.000
    Si3097   Si       0.51588    0.94914    0.94166    1.000
    Si3098   Si       0.46838    0.94297    0.88880    1.000
    N3099    N        0.48544    0.90176    0.89256    1.000
    N3100    N        0.50904    0.95896    0.89922    1.000
    N3101    N        0.48412    0.93737    0.96777    1.000
    N3102    N        0.54850    0.06701    0.06618    1.000
    Si3103   Si       0.56167    0.03132    0.04514    1.000
    N3104    N        0.55005    0.03469    0.00307    1.000
    N3105    N        0.56628    0.12596    0.10646    1.000
    Si3106   Si       0.56929    0.08393    0.09895    1.000
    Si3107   Si       0.52859    0.14096    0.09143    1.000
    N3108    N        0.53137    0.21900    0.01688    1.000
    Si3109   Si       0.52791    0.17603    0.01601    1.000
    N3110    N        0.56707    0.16268    0.00732    1.000
    N3111    N        0.57163    0.19485    0.10701    1.000
    Si3112   Si       0.54812    0.03070    0.23439    1.000
    N3113    N        0.54968    0.05457    0.19695    1.000
    N3114    N        0.55341    0.06470    0.13424    1.000
    Si3115   Si       0.52229    0.06355    0.16473    1.000
    Si3116   Si       0.53085    0.19814    0.12589    1.000
    N3117    N        0.52719    0.21314    0.16624    1.000
    N3118    N        0.54958    0.18226    0.22403    1.000
    N3119    N        0.53107    0.08586    0.29521    1.000
    Si3120   Si       0.56780    0.08933    0.27075    1.000
    N3121    N        0.53109    0.01196    0.31216    1.000
    Si3122   Si       0.54815    0.17103    0.26643    1.000
    N3123    N        0.54092    0.14747    0.32310    1.000
    N3124    N        0.53231    0.20371    0.29219    1.000
    Si3125   Si       0.52160    0.18553    0.33157    1.000
    N3126    N        0.54373    0.19402    0.37012    1.000
    N3127    N        0.55173    0.09302    0.44236    1.000
    Si3128   Si       0.54050    0.06125    0.41399    1.000
    Si3129   Si       0.53005    0.10524    0.47722    1.000
    N3130    N        0.52649    0.02633    0.43682    1.000
    N3131    N        0.56732    0.15223    0.41911    1.000
    N3132    N        0.52374    0.14874    0.47525    1.000
    Si3133   Si       0.53538    0.16922    0.44000    1.000
    N3134    N        0.54789    0.21038    0.44439    1.000
    Si3135   Si       0.55475    0.24791    0.46809    1.000
    N3136    N        0.54347    0.09487    0.51735    1.000
    Si3137   Si       0.56814    0.11555    0.60712    1.000
    N3138    N        0.56780    0.08100    0.58036    1.000
    Si3139   Si       0.57349    0.04485    0.60230    1.000
    N3140    N        0.55455    0.00936    0.58720    1.000
    N3141    N        0.56754    0.15730    0.59528    1.000
    N3142    N        0.56259    0.23561    0.51027    1.000
    N3143    N        0.55304    0.22508    0.57263    1.000
    Si3144   Si       0.52835    0.22870    0.53556    1.000
    Si3145   Si       0.53963    0.18732    0.61285    1.000
    Si3146   Si       0.55177    0.25489    0.60406    1.000
    N3147    N        0.52955    0.11280    0.62372    1.000
    Si3148   Si       0.56450    0.04327    0.68188    1.000
    N3149    N        0.55719    0.07714    0.70862    1.000
    N3150    N        0.55561    0.05374    0.64197    1.000
    Si3151   Si       0.53385    0.10693    0.72800    1.000
    N3152    N        0.54549    0.00623    0.69380    1.000
    Si3153   Si       0.56656    0.23749    0.73270    1.000
    N3154    N        0.52668    0.23049    0.63044    1.000
    Si3155   Si       0.56230    0.22506    0.66384    1.000
    N3156    N        0.54912    0.18200    0.65869    1.000
    N3157    N        0.54075    0.14687    0.70844    1.000
    N3158    N        0.54602    0.25448    0.69329    1.000
    N3159    N        0.52722    0.22375    0.74492    1.000
    N3160    N        0.54508    0.11262    0.76934    1.000
    N3161    N        0.53805    0.10587    0.83855    1.000
    Si3162   Si       0.53974    0.01581    0.80291    1.000
    Si3163   Si       0.51811    0.09539    0.79929    1.000
    Si3164   Si       0.55902    0.14137    0.84583    1.000
    N3165    N        0.52993    0.23624    0.81064    1.000
    N3166    N        0.53608    0.17545    0.86119    1.000
    Si3167   Si       0.57443    0.23776    0.80654    1.000
    Si3168   Si       0.56361    0.01092    0.96974    1.000
    Si3169   Si       0.55146    0.09105    0.87738    1.000
    N3170    N        0.53823    0.10035    0.97964    1.000
    N3171    N        0.52606    0.09086    0.91058    1.000
    N3172    N        0.56066    0.03351    0.93426    1.000
    Si3173   Si       0.52020    0.05016    0.92490    1.000
    Si3174   Si       0.52036    0.06252    0.99345    1.000
    Si3175   Si       0.51884    0.11887    0.94523    1.000
    Si3176   Si       0.56386    0.20848    0.87145    1.000
    Si3177   Si       0.52893    0.25658    0.91895    1.000
    N3178    N        0.53107    0.22569    0.94984    1.000
    Si3179   Si       0.55660    0.23218    0.98402    1.000
    N3180    N        0.53341    0.15742    0.93323    1.000
    N3181    N        0.53497    0.24073    0.87943    1.000
    Si3182   Si       0.55538    0.29742    0.02598    1.000
    Si3183   Si       0.54739    0.37299    0.02401    1.000
    N3184    N        0.55011    0.35146    0.10250    1.000
    N3185    N        0.53077    0.27707    0.05528    1.000
    N3186    N        0.53649    0.33251    0.01083    1.000
    Si3187   Si       0.51982    0.26620    0.09543    1.000
    N3188    N        0.52802    0.38984    0.05844    1.000
    Si3189   Si       0.53004    0.42916    0.07390    1.000
    N3190    N        0.53878    0.45788    0.04402    1.000
    Si3191   Si       0.56316    0.49461    0.05399    1.000
    N3192    N        0.56686    0.42039    0.09540    1.000
    Si3193   Si       0.54103    0.44252    0.00279    1.000
    N3194    N        0.55854    0.32946    0.22845    1.000
    N3195    N        0.55511    0.26936    0.19550    1.000
    Si3196   Si       0.53938    0.29172    0.22885    1.000
    Si3197   Si       0.54001    0.36838    0.22929    1.000
    Si3198   Si       0.56138    0.33350    0.13969    1.000
    N3199    N        0.54692    0.26441    0.12804    1.000
    N3200    N        0.52063    0.32534    0.15258    1.000
    Si3201   Si       0.52668    0.25616    0.16564    1.000
    N3202    N        0.56243    0.43729    0.17602    1.000
    N3203    N        0.51930    0.38492    0.19330    1.000
    N3204    N        0.57221    0.39756    0.22888    1.000
    Si3205   Si       0.52169    0.42829    0.18705    1.000
    N3206    N        0.54262    0.35687    0.31651    1.000
    N3207    N        0.53257    0.27717    0.32956    1.000
    N3208    N        0.54494    0.26872    0.26485    1.000
    Si3209   Si       0.54729    0.35366    0.35947    1.000
    Si3210   Si       0.56628    0.27105    0.30186    1.000
    N3211    N        0.54509    0.42206    0.28899    1.000
    N3212    N        0.55765    0.45491    0.35192    1.000
    Si3213   Si       0.53086    0.48964    0.34542    1.000
    Si3214   Si       0.56944    0.45173    0.31025    1.000
    N3215    N        0.55194    0.49562    0.30743    1.000
    Si3216   Si       0.54678    0.50035    0.26445    1.000
    Si3217   Si       0.55298    0.43268    0.24804    1.000
    N3218    N        0.57469    0.46783    0.25228    1.000
    Si3219   Si       0.51914    0.38743    0.29763    1.000
    Si3220   Si       0.53922    0.28439    0.37012    1.000
    N3221    N        0.52469    0.32336    0.38045    1.000
    Si3222   Si       0.54462    0.37508    0.47172    1.000
    N3223    N        0.52011    0.27189    0.46349    1.000
    N3224    N        0.52991    0.25415    0.39766    1.000
    Si3225   Si       0.55050    0.49285    0.41982    1.000
    N3226    N        0.56451    0.45168    0.41884    1.000
    N3227    N        0.54009    0.39371    0.37625    1.000
    Si3228   Si       0.56853    0.42789    0.38299    1.000
    N3229    N        0.55025    0.41718    0.47738    1.000
    N3230    N        0.54313    0.31671    0.51213    1.000
    Si3231   Si       0.53905    0.35077    0.53932    1.000
    N3232    N        0.52758    0.28782    0.59314    1.000
    N3233    N        0.52215    0.36094    0.57604    1.000
    N3234    N        0.53136    0.48812    0.51948    1.000
    Si3235   Si       0.54158    0.46482    0.55463    1.000
    N3236    N        0.53283    0.48118    0.59506    1.000
    N3237    N        0.52148    0.42532    0.55324    1.000
    Si3238   Si       0.52044    0.41784    0.51026    1.000
    Si3239   Si       0.55389    0.29611    0.70508    1.000
    N3240    N        0.55802    0.36733    0.65666    1.000
    N3241    N        0.51986    0.32085    0.69472    1.000
    Si3242   Si       0.51886    0.35829    0.67042    1.000
    Si3243   Si       0.53667    0.44853    0.62581    1.000
    N3244    N        0.54377    0.46639    0.66636    1.000
    N3245    N        0.56766    0.42618    0.74355    1.000
    Si3246   Si       0.54902    0.35877    0.79571    1.000
    N3247    N        0.55002    0.36265    0.75169    1.000
    N3248    N        0.56990    0.28549    0.74421    1.000
    N3249    N        0.55580    0.49820    0.84793    1.000
    N3250    N        0.55556    0.39974    0.80726    1.000
    Si3251   Si       0.54143    0.42879    0.77791    1.000
    N3252    N        0.53947    0.46883    0.79072    1.000
    Si3253   Si       0.52422    0.49828    0.81748    1.000
    N3254    N        0.54689    0.32055    0.87007    1.000
    N3255    N        0.55802    0.28781    0.93050    1.000
    Si3256   Si       0.54607    0.32618    0.91395    1.000
    N3257    N        0.57020    0.35708    0.93354    1.000
    N3258    N        0.56761    0.27183    0.99158    1.000
    N3259    N        0.55761    0.42786    0.87484    1.000
    Si3260   Si       0.51815    0.42733    0.89430    1.000
    N3261    N        0.51382    0.39863    0.92452    1.000
    N3262    N        0.54466    0.39899    0.99153    1.000
    Si3263   Si       0.54842    0.50015    0.89045    1.000
    Si3264   Si       0.57499    0.50389    0.98292    1.000
    Si3265   Si       0.54949    0.39260    0.94842    1.000
    N3266    N        0.57074    0.52299    0.02181    1.000
    N3267    N        0.52164    0.60491    0.00978    1.000
    N3268    N        0.54845    0.51356    0.09190    1.000
    N3269    N        0.53740    0.64146    0.07528    1.000
    Si3270   Si       0.53528    0.71389    0.03420    1.000
    N3271    N        0.53214    0.74861    0.00471    1.000
    Si3272   Si       0.57458    0.66309    0.06868    1.000
    Si3273   Si       0.53945    0.65213    0.11700    1.000
    N3274    N        0.51937    0.68131    0.00790    1.000
    N3275    N        0.55369    0.75309    0.06587    1.000
    Si3276   Si       0.57553    0.54497    0.20700    1.000
    N3277    N        0.52810    0.62158    0.14711    1.000
    N3278    N        0.54962    0.57831    0.19572    1.000
    N3279    N        0.53307    0.55313    0.13480    1.000
    Si3280   Si       0.56456    0.61612    0.21322    1.000
    Si3281   Si       0.56658    0.52685    0.13239    1.000
    N3282    N        0.56922    0.51395    0.17608    1.000
    N3283    N        0.53115    0.64410    0.21167    1.000
    N3284    N        0.52536    0.74171    0.18758    1.000
    Si3285   Si       0.51799    0.67479    0.24119    1.000
    N3286    N        0.57231    0.72887    0.12872    1.000
    Si3287   Si       0.53126    0.72680    0.14679    1.000
    N3288    N        0.52576    0.68348    0.14668    1.000
    N3289    N        0.55742    0.58161    0.31522    1.000
    Si3290   Si       0.55427    0.57463    0.27310    1.000
    Si3291   Si       0.53401    0.59829    0.34811    1.000
    N3292    N        0.56102    0.53717    0.24824    1.000
    N3293    N        0.57649    0.60647    0.25357    1.000
    N3294    N        0.54008    0.64108    0.33696    1.000
    Si3295   Si       0.54815    0.72533    0.28516    1.000
    N3296    N        0.52435    0.70670    0.31856    1.000
    N3297    N        0.55424    0.69981    0.25030    1.000
    N3298    N        0.55481    0.74725    0.36586    1.000
    Si3299   Si       0.52151    0.72200    0.35992    1.000
    N3300    N        0.56086    0.60680    0.48513    1.000
    N3301    N        0.54626    0.57462    0.38430    1.000
    Si3302   Si       0.54142    0.62440    0.45128    1.000
    N3303    N        0.52521    0.50319    0.38653    1.000
    Si3304   Si       0.56310    0.68093    0.40414    1.000
    N3305    N        0.52925    0.72929    0.46255    1.000
    N3306    N        0.56380    0.63786    0.41678    1.000
    N3307    N        0.53497    0.66259    0.47414    1.000
    Si3308   Si       0.55947    0.69917    0.46886    1.000
    N3309    N        0.52541    0.70282    0.40086    1.000
    Si3310   Si       0.54747    0.58618    0.56927    1.000
    N3311    N        0.53726    0.54405    0.56426    1.000
    Si3312   Si       0.54144    0.53083    0.52274    1.000
    N3313    N        0.54500    0.59145    0.61231    1.000
    N3314    N        0.52646    0.61394    0.54515    1.000
    Si3315   Si       0.54429    0.64096    0.51311    1.000
    N3316    N        0.51999    0.74018    0.57930    1.000
    N3317    N        0.56434    0.54602    0.65998    1.000
    Si3318   Si       0.53096    0.56837    0.64444    1.000
    Si3319   Si       0.55891    0.53281    0.70184    1.000
    N3320    N        0.51672    0.52021    0.70358    1.000
    N3321    N        0.54943    0.63887    0.66339    1.000
    N3322    N        0.54912    0.74494    0.70511    1.000
    N3323    N        0.55995    0.68135    0.71826    1.000
    Si3324   Si       0.55003    0.63410    0.62026    1.000
    N3325    N        0.55318    0.59629    0.78464    1.000
    Si3326   Si       0.55823    0.55877    0.80719    1.000
    N3327    N        0.53180    0.62104    0.84422    1.000
    Si3328   Si       0.53026    0.62641    0.80212    1.000
    N3329    N        0.51877    0.53968    0.80721    1.000
    Si3330   Si       0.57137    0.61083    0.85713    1.000
    N3331    N        0.56401    0.72307    0.77111    1.000
    N3332    N        0.54014    0.66629    0.78591    1.000
    Si3333   Si       0.57302    0.69194    0.80009    1.000
    Si3334   Si       0.52811    0.67135    0.74548    1.000
    N3335    N        0.53921    0.51219    0.96119    1.000
    Si3336   Si       0.56196    0.60916    0.98807    1.000
    N3337    N        0.56303    0.57566    0.95651    1.000
    Si3338   Si       0.53039    0.55144    0.94361    1.000
    N3339    N        0.53575    0.53845    0.90224    1.000
    N3340    N        0.57251    0.61027    0.89898    1.000
    Si3341   Si       0.52326    0.67019    0.96660    1.000
    Si3342   Si       0.51936    0.74826    0.96406    1.000
    N3343    N        0.52682    0.66136    0.90159    1.000
    Si3344   Si       0.56315    0.64765    0.91842    1.000
    N3345    N        0.55695    0.64501    0.96190    1.000
    N3346    N        0.52863    0.70984    0.94617    1.000
    Si3347   Si       0.53595    0.85114    0.02639    1.000
    N3348    N        0.55482    0.81478    0.01203    1.000
    N3349    N        0.54589    0.80483    0.10631    1.000
    Si3350   Si       0.56200    0.77424    0.02732    1.000
    Si3351   Si       0.52213    0.77110    0.09195    1.000
    Si3352   Si       0.52266    0.83865    0.09869    1.000
    N3353    N        0.56739    0.88072    0.04141    1.000
    N3354    N        0.54002    0.86969    0.12013    1.000
    Si3355   Si       0.55887    0.92254    0.05260    1.000
    N3356    N        0.54458    0.93525    0.01544    1.000
    N3357    N        0.52801    0.92474    0.08461    1.000
    N3358    N        0.54529    0.00006    0.06862    1.000
    Si3359   Si       0.55536    0.83764    0.21407    1.000
    N3360    N        0.53598    0.86535    0.18561    1.000
    N3361    N        0.52851    0.80296    0.21822    1.000
    Si3362   Si       0.54100    0.76268    0.22278    1.000
    N3363    N        0.57318    0.98785    0.18824    1.000
    Si3364   Si       0.52992    0.91011    0.12530    1.000
    N3365    N        0.52415    0.98955    0.13638    1.000
    Si3366   Si       0.56153    0.97169    0.14990    1.000
    Si3367   Si       0.55866    0.90487    0.18946    1.000
    N3368    N        0.54391    0.93297    0.22001    1.000
    N3369    N        0.55757    0.92846    0.15253    1.000
    Si3370   Si       0.57725    0.96180    0.22240    1.000
    Si3371   Si       0.51974    0.96306    0.24026    1.000
    N3372    N        0.55702    0.85763    0.25269    1.000
    Si3373   Si       0.56094    0.87310    0.34172    1.000
    Si3374   Si       0.52189    0.86213    0.27707    1.000
    N3375    N        0.53453    0.84940    0.36900    1.000
    N3376    N        0.53074    0.75893    0.26480    1.000
    N3377    N        0.51975    0.82552    0.30373    1.000
    N3378    N        0.53389    0.88750    0.31093    1.000
    N3379    N        0.56609    0.95099    0.30674    1.000
    Si3380   Si       0.52733    0.92994    0.31381    1.000
    Si3381   Si       0.56465    0.99151    0.29232    1.000
    N3382    N        0.55454    0.98951    0.25021    1.000
    N3383    N        0.57067    0.91186    0.36236    1.000
    Si3384   Si       0.53425    0.86166    0.41047    1.000
    N3385    N        0.55676    0.82685    0.43172    1.000
    Si3386   Si       0.55344    0.77922    0.39456    1.000
    Si3387   Si       0.52839    0.82402    0.46315    1.000
    Si3388   Si       0.52174    0.76108    0.49002    1.000
    Si3389   Si       0.51993    0.98496    0.42305    1.000
    N3390    N        0.53739    0.98756    0.38163    1.000
    Si3391   Si       0.53209    0.91548    0.44221    1.000
    N3392    N        0.54162    0.95844    0.44837    1.000
    N3393    N        0.56444    0.89072    0.42803    1.000
    Si3394   Si       0.55394    0.81409    0.52379    1.000
    N3395    N        0.52537    0.80320    0.61128    1.000
    N3396    N        0.56062    0.77806    0.49838    1.000
    N3397    N        0.51776    0.80391    0.54462    1.000
    N3398    N        0.54186    0.84548    0.49710    1.000
    Si3399   Si       0.53706    0.88553    0.50851    1.000
    N3400    N        0.53531    0.89497    0.55465    1.000
    Si3401   Si       0.56856    0.97095    0.60083    1.000
    Si3402   Si       0.55672    0.93163    0.54332    1.000
    Si3403   Si       0.53411    0.99573    0.51245    1.000
    N3404    N        0.52625    0.95975    0.53592    1.000
    N3405    N        0.57312    0.91358    0.50820    1.000
    N3406    N        0.57447    0.99503    0.49923    1.000
    Si3407   Si       0.56598    0.81153    0.62555    1.000
    N3408    N        0.56532    0.81460    0.70879    1.000
    Si3409   Si       0.56597    0.85237    0.68863    1.000
    Si3410   Si       0.55095    0.78195    0.68489    1.000
    N3411    N        0.55006    0.84362    0.65038    1.000
    N3412    N        0.54083    0.88071    0.70886    1.000
    N3413    N        0.57737    0.77726    0.65027    1.000
    Si3414   Si       0.51974    0.99012    0.72799    1.000
    N3415    N        0.58210    0.93005    0.68910    1.000
    Si3416   Si       0.52903    0.97734    0.66507    1.000
    Si3417   Si       0.54763    0.92313    0.70988    1.000
    N3418    N        0.53757    0.95585    0.62962    1.000
    Si3419   Si       0.54608    0.81594    0.85695    1.000
    N3420    N        0.54761    0.77307    0.85531    1.000
    Si3421   Si       0.53848    0.84341    0.78709    1.000
    N3422    N        0.55532    0.88147    0.79994    1.000
    N3423    N        0.57971    0.82871    0.77753    1.000
    Si3424   Si       0.54558    0.91945    0.81835    1.000
    N3425    N        0.55119    0.91543    0.86118    1.000
    N3426    N        0.54461    0.99656    0.76407    1.000
    N3427    N        0.54702    0.93443    0.75091    1.000
    N3428    N        0.51912    0.99220    0.83508    1.000
    Si3429   Si       0.57418    0.96412    0.76910    1.000
    N3430    N        0.57354    0.95445    0.81206    1.000
    Si3431   Si       0.53381    0.82897    0.92709    1.000
    N3432    N        0.53248    0.78283    0.93729    1.000
    N3433    N        0.56427    0.84883    0.94992    1.000
    N3434    N        0.52505    0.83914    0.88528    1.000
    Si3435   Si       0.57415    0.77670    0.92293    1.000
    N3436    N        0.57082    0.99631    0.87699    1.000
    Si3437   Si       0.52629    0.99522    0.87739    1.000
    Si3438   Si       0.57299    0.95100    0.98489    1.000
    Si3439   Si       0.52554    0.91703    0.89318    1.000
    N3440    N        0.54392    0.97374    0.96365    1.000
    N3441    N        0.54018    0.91340    0.93309    1.000
    Si3442   Si       0.57536    0.89217    0.94367    1.000
    N3443    N        0.61161    0.07599    0.09388    1.000
    N3444    N        0.59747    0.09934    0.01408    1.000
    N3445    N        0.60283    0.01903    0.05489    1.000
    Si3446   Si       0.63115    0.04286    0.07513    1.000
    Si3447   Si       0.60393    0.18645    0.00555    1.000
    N3448    N        0.61343    0.19288    0.04868    1.000
    Si3449   Si       0.60581    0.21029    0.08651    1.000
    N3450    N        0.60461    0.25350    0.08822    1.000
    N3451    N        0.59025    0.10761    0.16906    1.000
    N3452    N        0.61632    0.04250    0.16168    1.000
    Si3453   Si       0.61039    0.11583    0.20613    1.000
    Si3454   Si       0.58094    0.06510    0.16767    1.000
    N3455    N        0.58282    0.11636    0.23911    1.000
    Si3456   Si       0.62655    0.00758    0.13889    1.000
    Si3457   Si       0.59490    0.13800    0.13814    1.000
    Si3458   Si       0.59147    0.18223    0.20974    1.000
    N3459    N        0.59492    0.17451    0.16727    1.000
    N3460    N        0.60832    0.24162    0.15866    1.000
    N3461    N        0.60412    0.21882    0.22894    1.000
    N3462    N        0.62570    0.15547    0.21843    1.000
    Si3463   Si       0.62406    0.20202    0.15241    1.000
    Si3464   Si       0.59859    0.25357    0.19979    1.000
    N3465    N        0.61658    0.05165    0.34491    1.000
    N3466    N        0.59671    0.10936    0.29848    1.000
    Si3467   Si       0.61975    0.03432    0.26237    1.000
    Si3468   Si       0.62399    0.08169    0.31663    1.000
    Si3469   Si       0.62262    0.01103    0.33353    1.000
    N3470    N        0.57915    0.04968    0.25863    1.000
    Si3471   Si       0.61454    0.13699    0.26279    1.000
    Si3472   Si       0.61242    0.20999    0.27333    1.000
    N3473    N        0.60265    0.15606    0.35709    1.000
    N3474    N        0.59109    0.17037    0.28020    1.000
    N3475    N        0.60127    0.24680    0.29161    1.000
    Si3476   Si       0.58507    0.14463    0.31974    1.000
    N3477    N        0.61598    0.11926    0.46560    1.000
    Si3478   Si       0.61397    0.05981    0.38706    1.000
    Si3479   Si       0.58681    0.11515    0.43438    1.000
    N3480    N        0.61350    0.10052    0.40191    1.000
    N3481    N        0.63184    0.01759    0.47310    1.000
    N3482    N        0.57689    0.04442    0.39830    1.000
    Si3483   Si       0.57490    0.24829    0.40432    1.000
    Si3484   Si       0.57912    0.17811    0.38608    1.000
    N3485    N        0.60185    0.21651    0.39175    1.000
    Si3486   Si       0.63090    0.25206    0.45637    1.000
    N3487    N        0.59076    0.25941    0.44657    1.000
    N3488    N        0.61089    0.05713    0.52863    1.000
    Si3489   Si       0.61000    0.01721    0.51051    1.000
    N3490    N        0.61520    0.03971    0.60851    1.000
    Si3491   Si       0.57964    0.08838    0.54034    1.000
    N3492    N        0.60436    0.12565    0.54227    1.000
    Si3493   Si       0.62964    0.12672    0.50651    1.000
    N3494    N        0.61214    0.19858    0.54819    1.000
    Si3495   Si       0.60541    0.16141    0.57112    1.000
    Si3496   Si       0.58861    0.23311    0.54663    1.000
    N3497    N        0.63392    0.16301    0.60406    1.000
    Si3498   Si       0.62319    0.25698    0.60806    1.000
    N3499    N        0.60952    0.10749    0.62300    1.000
    N3500    N        0.60705    0.02984    0.67468    1.000
    Si3501   Si       0.62790    0.12479    0.72294    1.000
    Si3502   Si       0.62059    0.00961    0.63882    1.000
    N3503    N        0.58876    0.24367    0.63236    1.000
    N3504    N        0.58808    0.21017    0.70078    1.000
    Si3505   Si       0.63071    0.13896    0.64305    1.000
    Si3506   Si       0.63014    0.22154    0.69441    1.000
    N3507    N        0.59679    0.15847    0.74263    1.000
    N3508    N        0.61322    0.14321    0.68360    1.000
    Si3509   Si       0.57863    0.16716    0.69984    1.000
    N3510    N        0.61837    0.10641    0.76399    1.000
    Si3511   Si       0.62436    0.02701    0.80873    1.000
    N3512    N        0.58115    0.02196    0.81239    1.000
    Si3513   Si       0.58417    0.13057    0.77597    1.000
    Si3514   Si       0.61968    0.19262    0.75593    1.000
    Si3515   Si       0.61522    0.17969    0.82529    1.000
    N3516    N        0.58928    0.21209    0.83846    1.000
    N3517    N        0.59171    0.22360    0.76788    1.000
    N3518    N        0.58708    0.14808    0.81440    1.000
    Si3519   Si       0.61459    0.10243    0.88578    1.000
    Si3520   Si       0.58844    0.02894    0.90104    1.000
    N3521    N        0.58806    0.06590    0.87775    1.000
    N3522    N        0.62685    0.01692    0.92111    1.000
    N3523    N        0.58023    0.12846    0.88343    1.000
    N3524    N        0.59493    0.13606    0.95157    1.000
    Si3525   Si       0.57305    0.12430    0.98874    1.000
    N3526    N        0.59365    0.21215    0.97364    1.000
    N3527    N        0.58628    0.19849    0.90869    1.000
    Si3528   Si       0.61212    0.22338    0.93657    1.000
    Si3529   Si       0.57589    0.15741    0.91968    1.000
    N3530    N        0.59831    0.30349    0.04000    1.000
    Si3531   Si       0.60929    0.34014    0.01729    1.000
    N3532    N        0.61958    0.37281    0.10320    1.000
    N3533    N        0.58540    0.36681    0.04287    1.000
    Si3534   Si       0.62677    0.28057    0.06322    1.000
    Si3535   Si       0.63165    0.33302    0.11815    1.000
    Si3536   Si       0.58010    0.37768    0.08430    1.000
    N3537    N        0.59988    0.47450    0.06446    1.000
    Si3538   Si       0.60291    0.44586    0.09618    1.000
    Si3539   Si       0.63217    0.50466    0.11719    1.000
    Si3540   Si       0.59126    0.26558    0.12709    1.000
    N3541    N        0.59624    0.30854    0.12884    1.000
    Si3542   Si       0.59553    0.33134    0.20633    1.000
    N3543    N        0.61657    0.29265    0.20725    1.000
    N3544    N        0.62396    0.35549    0.22737    1.000
    N3545    N        0.57877    0.35604    0.17237    1.000
    Si3546   Si       0.58769    0.47222    0.17222    1.000
    N3547    N        0.60557    0.47196    0.13153    1.000
    Si3548   Si       0.58085    0.39818    0.18414    1.000
    N3549    N        0.62149    0.47272    0.20131    1.000
    N3550    N        0.62158    0.40877    0.17354    1.000
    N3551    N        0.63251    0.42403    0.24218    1.000
    Si3552   Si       0.61771    0.46532    0.24394    1.000
    N3553    N        0.59496    0.30236    0.31250    1.000
    N3554    N        0.59010    0.35045    0.35466    1.000
    Si3555   Si       0.58496    0.34627    0.31042    1.000
    Si3556   Si       0.63016    0.27719    0.30112    1.000
    Si3557   Si       0.60611    0.30946    0.35908    1.000
    N3558    N        0.61017    0.37400    0.29056    1.000
    Si3559   Si       0.60929    0.38956    0.24986    1.000
    N3560    N        0.60984    0.43873    0.30877    1.000
    N3561    N        0.58118    0.28245    0.37928    1.000
    Si3562   Si       0.62011    0.37339    0.45356    1.000
    N3563    N        0.62046    0.35827    0.41208    1.000
    N3564    N        0.58373    0.35751    0.47189    1.000
    N3565    N        0.60376    0.47213    0.47563    1.000
    N3566    N        0.61667    0.41520    0.45384    1.000
    Si3567   Si       0.61988    0.37815    0.37248    1.000
    N3568    N        0.61155    0.42039    0.38028    1.000
    Si3569   Si       0.57976    0.43912    0.45793    1.000
    N3570    N        0.61903    0.30579    0.50706    1.000
    Si3571   Si       0.62320    0.36866    0.55189    1.000
    Si3572   Si       0.58541    0.33120    0.50479    1.000
    N3573    N        0.60454    0.26811    0.56888    1.000
    N3574    N        0.58338    0.35871    0.53933    1.000
    Si3575   Si       0.63245    0.29502    0.54780    1.000
    Si3576   Si       0.60557    0.43282    0.58940    1.000
    Si3577   Si       0.61156    0.48994    0.56493    1.000
    N3578    N        0.63153    0.39764    0.58416    1.000
    N3579    N        0.58429    0.45456    0.55776    1.000
    N3580    N        0.63440    0.46564    0.59220    1.000
    N3581    N        0.59083    0.31521    0.69195    1.000
    Si3582   Si       0.59414    0.35365    0.67175    1.000
    Si3583   Si       0.62760    0.30429    0.71167    1.000
    N3584    N        0.62516    0.34641    0.64292    1.000
    N3585    N        0.60598    0.37780    0.70445    1.000
    Si3586   Si       0.58537    0.38575    0.74208    1.000
    Si3587   Si       0.58825    0.46432    0.66029    1.000
    N3588    N        0.57881    0.49916    0.72231    1.000
    N3589    N        0.61154    0.49975    0.65305    1.000
    Si3590   Si       0.63315    0.41102    0.69608    1.000
    N3591    N        0.57898    0.43864    0.62375    1.000
    N3592    N        0.60945    0.44672    0.69305    1.000
    Si3593   Si       0.59165    0.45860    0.73175    1.000
    Si3594   Si       0.59321    0.30158    0.77838    1.000
    Si3595   Si       0.61748    0.36740    0.80750    1.000
    N3596    N        0.58662    0.33715    0.80540    1.000
    Si3597   Si       0.58250    0.30914    0.84356    1.000
    N3598    N        0.58682    0.27707    0.81281    1.000
    N3599    N        0.62909    0.31424    0.75500    1.000
    N3600    N        0.61710    0.39223    0.77159    1.000
    N3601    N        0.61173    0.38865    0.84614    1.000
    N3602    N        0.60508    0.45156    0.82891    1.000
    Si3603   Si       0.59378    0.49385    0.82680    1.000
    N3604    N        0.62622    0.46228    0.75698    1.000
    Si3605   Si       0.57836    0.41813    0.83713    1.000
    N3606    N        0.61642    0.30515    0.87154    1.000
    N3607    N        0.60906    0.32599    0.97671    1.000
    Si3608   Si       0.60925    0.36188    0.95083    1.000
    Si3609   Si       0.59106    0.29056    0.95922    1.000
    N3610    N        0.61962    0.26673    0.93627    1.000
    N3611    N        0.58718    0.48814    0.90530    1.000
    N3612    N        0.61926    0.39141    0.98086    1.000
    Si3613   Si       0.58857    0.44430    0.90008    1.000
    N3614    N        0.57871    0.42235    0.93726    1.000
    Si3615   Si       0.60411    0.43140    0.97174    1.000
    N3616    N        0.62967    0.43251    0.89109    1.000
    N3617    N        0.57801    0.45904    0.98992    1.000
    Si3618   Si       0.61583    0.57300    0.10286    1.000
    Si3619   Si       0.59454    0.55928    0.03208    1.000
    N3620    N        0.59508    0.59633    0.01031    1.000
    N3621    N        0.58699    0.57249    0.07084    1.000
    Si3622   Si       0.62776    0.62439    0.02578    1.000
    N3623    N        0.60997    0.64071    0.06170    1.000
    Si3624   Si       0.61367    0.71781    0.03754    1.000
    Si3625   Si       0.62100    0.64710    0.10430    1.000
    N3626    N        0.62289    0.72601    0.07911    1.000
    Si3627   Si       0.58701    0.74636    0.09266    1.000
    N3628    N        0.58079    0.66588    0.11069    1.000
    N3629    N        0.59907    0.75466    0.01931    1.000
    N3630    N        0.57571    0.69591    0.04204    1.000
    N3631    N        0.60721    0.53846    0.12349    1.000
    N3632    N        0.61555    0.60962    0.12629    1.000
    N3633    N        0.61573    0.55746    0.20744    1.000
    N3634    N        0.60325    0.62516    0.19507    1.000
    Si3635   Si       0.63621    0.59546    0.21161    1.000
    Si3636   Si       0.62958    0.63137    0.16017    1.000
    N3637    N        0.63025    0.67195    0.14786    1.000
    Si3638   Si       0.59056    0.69276    0.14806    1.000
    Si3639   Si       0.59033    0.71805    0.22778    1.000
    N3640    N        0.58739    0.69873    0.18892    1.000
    N3641    N        0.60139    0.54632    0.35958    1.000
    N3642    N        0.59771    0.61731    0.35920    1.000
    Si3643   Si       0.61292    0.61922    0.27608    1.000
    Si3644   Si       0.59507    0.58103    0.33601    1.000
    N3645    N        0.62240    0.58637    0.30318    1.000
    N3646    N        0.60525    0.65422    0.29910    1.000
    Si3647   Si       0.61938    0.69488    0.29148    1.000
    N3648    N        0.58739    0.72275    0.30451    1.000
    Si3649   Si       0.58982    0.72562    0.34733    1.000
    N3650    N        0.62803    0.73945    0.35740    1.000
    Si3651   Si       0.58308    0.65149    0.33687    1.000
    N3652    N        0.58145    0.68514    0.36353    1.000
    N3653    N        0.62531    0.70245    0.24905    1.000
    N3654    N        0.60488    0.58394    0.42525    1.000
    Si3655   Si       0.60199    0.62213    0.40256    1.000
    Si3656   Si       0.62811    0.51604    0.42754    1.000
    N3657    N        0.58475    0.52103    0.41935    1.000
    Si3658   Si       0.58387    0.55718    0.39867    1.000
    N3659    N        0.62646    0.59050    0.49611    1.000
    Si3660   Si       0.63007    0.68179    0.44265    1.000
    N3661    N        0.58842    0.69442    0.43669    1.000
    Si3662   Si       0.61614    0.56185    0.57399    1.000
    N3663    N        0.58975    0.58932    0.55473    1.000
    N3664    N        0.60076    0.52412    0.58665    1.000
    Si3665   Si       0.58676    0.58176    0.50978    1.000
    N3666    N        0.58105    0.53862    0.50869    1.000
    N3667    N        0.61818    0.57379    0.61529    1.000
    Si3668   Si       0.60047    0.63433    0.56175    1.000
    Si3669   Si       0.61219    0.51086    0.49469    1.000
    Si3670   Si       0.59717    0.75699    0.50838    1.000
    N3671    N        0.62622    0.69586    0.55686    1.000
    Si3672   Si       0.61018    0.68636    0.51680    1.000
    N3673    N        0.58691    0.64792    0.60055    1.000
    N3674    N        0.60861    0.72054    0.61290    1.000
    N3675    N        0.58315    0.65383    0.52806    1.000
    N3676    N        0.58313    0.71555    0.50200    1.000
    Si3677   Si       0.63058    0.73649    0.57484    1.000
    Si3678   Si       0.59718    0.53671    0.62917    1.000
    N3679    N        0.58986    0.62133    0.71565    1.000
    N3680    N        0.57263    0.55976    0.73386    1.000
    N3681    N        0.61162    0.67150    0.66304    1.000
    Si3682   Si       0.61322    0.67784    0.61999    1.000
    Si3683   Si       0.63766    0.70044    0.68532    1.000
    Si3684   Si       0.57976    0.65477    0.68976    1.000
    Si3685   Si       0.57905    0.72475    0.73055    1.000
    N3686    N        0.62120    0.70627    0.72360    1.000
    N3687    N        0.62073    0.60061    0.77445    1.000
    Si3688   Si       0.61708    0.55548    0.85764    1.000
    N3689    N        0.58186    0.52250    0.79475    1.000
    Si3690   Si       0.59375    0.52570    0.75251    1.000
    N3691    N        0.62727    0.51636    0.84510    1.000
    N3692    N        0.57967    0.57168    0.84221    1.000
    Si3693   Si       0.58139    0.59864    0.75059    1.000
    Si3694   Si       0.62013    0.63297    0.80415    1.000
    N3695    N        0.59861    0.64263    0.84243    1.000
    N3696    N        0.61058    0.67295    0.78425    1.000
    Si3697   Si       0.60744    0.68231    0.86295    1.000
    N3698    N        0.58383    0.70751    0.83914    1.000
    Si3699   Si       0.58195    0.74500    0.85962    1.000
    N3700    N        0.61254    0.51718    0.96373    1.000
    N3701    N        0.61614    0.55406    0.90143    1.000
    Si3702   Si       0.61777    0.51334    0.92027    1.000
    Si3703   Si       0.59413    0.58368    0.92717    1.000
    Si3704   Si       0.61247    0.71114    0.91866    1.000
    N3705    N        0.63323    0.64851    0.99086    1.000
    N3706    N        0.62412    0.71977    0.95979    1.000
    N3707    N        0.58375    0.73947    0.90497    1.000
    N3708    N        0.59442    0.67372    0.90471    1.000
    Si3709   Si       0.60473    0.86026    0.03883    1.000
    N3710    N        0.60248    0.82713    0.06645    1.000
    Si3711   Si       0.58805    0.81586    0.10730    1.000
    N3712    N        0.61188    0.77890    0.10800    1.000
    N3713    N        0.61797    0.84101    0.99969    1.000
    N3714    N        0.59645    0.94376    0.06293    1.000
    Si3715   Si       0.58784    0.98368    0.07888    1.000
    N3716    N        0.59384    0.98373    0.12229    1.000
    Si3717   Si       0.63798    0.92726    0.05620    1.000
    N3718    N        0.60833    0.84190    0.13345    1.000
    Si3719   Si       0.61080    0.79359    0.22400    1.000
    N3720    N        0.59350    0.82626    0.19971    1.000
    Si3721   Si       0.61271    0.85859    0.17512    1.000
    N3722    N        0.58430    0.75978    0.22484    1.000
    Si3723   Si       0.62490    0.90685    0.22686    1.000
    N3724    N        0.61850    0.94970    0.22465    1.000
    N3725    N        0.59855    0.89299    0.19634    1.000
    N3726    N        0.59406    0.85206    0.32302    1.000
    N3727    N        0.60765    0.81479    0.26364    1.000
    Si3728   Si       0.59339    0.85292    0.27772    1.000
    Si3729   Si       0.62529    0.84556    0.35297    1.000
    N3730    N        0.61679    0.89265    0.26808    1.000
    N3731    N        0.59824    0.98556    0.36032    1.000
    Si3732   Si       0.59071    0.94503    0.34227    1.000
    N3733    N        0.62755    0.92793    0.32803    1.000
    N3734    N        0.60612    0.00602    0.29473    1.000
    N3735    N        0.60492    0.85785    0.38938    1.000
    N3736    N        0.59487    0.78730    0.39807    1.000
    Si3737   Si       0.59935    0.82570    0.42052    1.000
    Si3738   Si       0.63070    0.77542    0.38131    1.000
    N3739    N        0.63505    0.82531    0.44508    1.000
    Si3740   Si       0.58050    0.96872    0.46340    1.000
    N3741    N        0.62689    0.92509    0.39651    1.000
    Si3742   Si       0.59317    0.89817    0.39633    1.000
    N3743    N        0.59683    0.99061    0.42799    1.000
    N3744    N        0.61369    0.93882    0.46399    1.000
    Si3745   Si       0.57589    0.00110    0.39231    1.000
    Si3746   Si       0.61570    0.80072    0.57205    1.000
    N3747    N        0.58997    0.82541    0.54056    1.000
    Si3748   Si       0.62167    0.86739    0.60570    1.000
    N3749    N        0.59813    0.82887    0.60327    1.000
    Si3750   Si       0.62559    0.84851    0.53333    1.000
    N3751    N        0.62766    0.86878    0.49628    1.000
    N3752    N        0.60306    0.76238    0.55244    1.000
    N3753    N        0.63250    0.77385    0.60262    1.000
    Si3754   Si       0.62730    0.95560    0.55476    1.000
    N3755    N        0.58676    0.95021    0.56855    1.000
    Si3756   Si       0.61507    0.91108    0.49794    1.000
    N3757    N        0.63563    0.99270    0.53637    1.000
    N3758    N        0.60617    0.86533    0.68009    1.000
    Si3759   Si       0.59257    0.81074    0.74163    1.000
    N3760    N        0.60111    0.76639    0.73768    1.000
    N3761    N        0.63122    0.82891    0.72995    1.000
    Si3762   Si       0.61386    0.75567    0.63648    1.000
    Si3763   Si       0.62523    0.94015    0.62095    1.000
    N3764    N        0.60176    0.90242    0.62142    1.000
    N3765    N        0.60136    0.97407    0.62777    1.000
    Si3766   Si       0.60659    0.90512    0.66469    1.000
    Si3767   Si       0.59472    0.85894    0.80636    1.000
    N3768    N        0.61434    0.76978    0.84579    1.000
    N3769    N        0.58156    0.83281    0.83912    1.000
    Si3770   Si       0.61039    0.81111    0.86234    1.000
    N3771    N        0.63575    0.86581    0.78919    1.000
    N3772    N        0.60886    0.88930    0.83717    1.000
    Si3773   Si       0.58846    0.98616    0.83874    1.000
    N3774    N        0.61537    0.95782    0.75771    1.000
    N3775    N        0.63277    0.99653    0.83658    1.000
    N3776    N        0.59315    0.78489    0.96177    1.000
    Si3777   Si       0.58357    0.82334    0.97890    1.000
    N3778    N        0.58587    0.80901    0.89677    1.000
    Si3779   Si       0.61958    0.75731    0.98011    1.000
    N3780    N        0.60504    0.89702    0.91208    1.000
    Si3781   Si       0.59330    0.91034    0.87067    1.000
    N3782    N        0.62459    0.94227    0.87406    1.000
    N3783    N        0.59564    0.91431    0.97648    1.000
    N3784    N        0.60033    0.98931    0.98122    1.000
    N3785    N        0.65753    0.06367    0.04808    1.000
    Si3786   Si       0.64418    0.10396    0.09451    1.000
    N3787    N        0.64872    0.01480    0.10146    1.000
    N3788    N        0.68249    0.09303    0.11377    1.000
    N3789    N        0.64368    0.12530    0.05691    1.000
    Si3790   Si       0.63923    0.09597    0.02427    1.000
    Si3791   Si       0.64911    0.16622    0.04360    1.000
    Si3792   Si       0.68158    0.19179    0.10624    1.000
    N3793    N        0.68485    0.18216    0.06324    1.000
    N3794    N        0.64570    0.17147    0.00172    1.000
    N3795    N        0.63919    0.20057    0.11272    1.000
    Si3796   Si       0.64687    0.04473    0.19260    1.000
    N3797    N        0.68789    0.04983    0.18383    1.000
    N3798    N        0.64209    0.08498    0.21065    1.000
    N3799    N        0.63245    0.01754    0.22472    1.000
    Si3800   Si       0.67852    0.12829    0.13970    1.000
    Si3801   Si       0.68376    0.23646    0.18181    1.000
    N3802    N        0.68012    0.12926    0.18223    1.000
    N3803    N        0.63586    0.13212    0.12661    1.000
    Si3804   Si       0.66485    0.16569    0.20119    1.000
    N3805    N        0.66187    0.19960    0.17333    1.000
    N3806    N        0.66821    0.25252    0.21746    1.000
    N3807    N        0.69042    0.18163    0.23024    1.000
    Si3808   Si       0.67653    0.09629    0.27779    1.000
    N3809    N        0.64671    0.10866    0.34272    1.000
    N3810    N        0.64527    0.06472    0.28425    1.000
    Si3811   Si       0.68803    0.09760    0.35260    1.000
    N3812    N        0.65699    0.13334    0.27359    1.000
    Si3813   Si       0.67527    0.22082    0.32423    1.000
    N3814    N        0.65371    0.20392    0.28918    1.000
    Si3815   Si       0.67831    0.17143    0.27110    1.000
    N3816    N        0.67340    0.19961    0.36328    1.000
    Si3817   Si       0.68006    0.02379    0.37551    1.000
    N3818    N        0.64526    0.03268    0.40017    1.000
    N3819    N        0.67926    0.12012    0.38995    1.000
    N3820    N        0.68529    0.13065    0.45713    1.000
    Si3821   Si       0.63544    0.13197    0.38192    1.000
    N3822    N        0.63496    0.16461    0.41614    1.000
    Si3823   Si       0.64365    0.20287    0.39702    1.000
    N3824    N        0.65792    0.23037    0.42732    1.000
    Si3825   Si       0.64703    0.15032    0.45531    1.000
    N3826    N        0.63369    0.23435    0.49433    1.000
    N3827    N        0.66331    0.07879    0.57871    1.000
    N3828    N        0.68356    0.03946    0.52090    1.000
    Si3829   Si       0.65341    0.06694    0.53664    1.000
    N3830    N        0.66355    0.10196    0.51239    1.000
    Si3831   Si       0.63811    0.07532    0.61308    1.000
    Si3832   Si       0.64430    0.20081    0.51841    1.000
    N3833    N        0.65656    0.23165    0.59740    1.000
    N3834    N        0.68340    0.20611    0.53855    1.000
    Si3835   Si       0.68718    0.23819    0.56645    1.000
    Si3836   Si       0.65657    0.19520    0.61801    1.000
    N3837    N        0.64236    0.16614    0.49407    1.000
    N3838    N        0.64323    0.08620    0.71053    1.000
    N3839    N        0.65985    0.06512    0.64936    1.000
    N3840    N        0.66425    0.02014    0.70765    1.000
    Si3841   Si       0.68306    0.09757    0.72575    1.000
    Si3842   Si       0.64157    0.04959    0.68625    1.000
    N3843    N        0.67384    0.12667    0.64320    1.000
    N3844    N        0.65155    0.20469    0.66225    1.000
    N3845    N        0.67031    0.14053    0.72626    1.000
    N3846    N        0.65005    0.20496    0.72878    1.000
    Si3847   Si       0.68621    0.18220    0.72867    1.000
    Si3848   Si       0.66904    0.08312    0.84979    1.000
    Si3849   Si       0.64675    0.07787    0.78050    1.000
    N3850    N        0.68672    0.09137    0.76852    1.000
    N3851    N        0.64550    0.03435    0.76987    1.000
    N3852    N        0.64031    0.06455    0.82209    1.000
    Si3853   Si       0.67924    0.02040    0.74722    1.000
    N3854    N        0.64928    0.11843    0.86595    1.000
    N3855    N        0.68124    0.22489    0.82405    1.000
    Si3856   Si       0.68221    0.18672    0.80392    1.000
    N3857    N        0.64538    0.18233    0.85606    1.000
    Si3858   Si       0.66669    0.21782    0.86477    1.000
    N3859    N        0.64124    0.18060    0.79025    1.000
    Si3860   Si       0.68157    0.15478    0.86748    1.000
    N3861    N        0.67726    0.05224    0.88212    1.000
    Si3862   Si       0.65641    0.04809    0.91963    1.000
    N3863    N        0.65783    0.10022    0.98662    1.000
    N3864    N        0.68938    0.05045    0.94637    1.000
    Si3865   Si       0.63547    0.11747    0.95290    1.000
    N3866    N        0.63460    0.08602    0.92299    1.000
    N3867    N        0.66293    0.14718    0.94084    1.000
    N3868    N        0.65403    0.21350    0.93958    1.000
    Si3869   Si       0.66746    0.18090    0.96724    1.000
    N3870    N        0.66855    0.25449    0.88812    1.000
    Si3871   Si       0.69493    0.21859    0.92381    1.000
    Si3872   Si       0.67390    0.33594    0.05582    1.000
    N3873    N        0.64851    0.35455    0.02627    1.000
    N3874    N        0.64935    0.31218    0.08448    1.000
    N3875    N        0.68749    0.36802    0.08008    1.000
    N3876    N        0.66045    0.25878    0.05013    1.000
    N3877    N        0.68574    0.41585    0.00521    1.000
    Si3878   Si       0.65623    0.39620    0.09562    1.000
    N3879    N        0.65166    0.48370    0.01489    1.000
    Si3880   Si       0.64271    0.47106    0.05601    1.000
    N3881    N        0.64251    0.43402    0.07959    1.000
    Si3882   Si       0.69102    0.49806    0.11376    1.000
    Si3883   Si       0.66922    0.35581    0.23093    1.000
    Si3884   Si       0.65290    0.29014    0.23062    1.000
    N3885    N        0.65530    0.33881    0.15187    1.000
    N3886    N        0.68300    0.31747    0.21402    1.000
    Si3887   Si       0.68489    0.31427    0.17112    1.000
    Si3888   Si       0.65368    0.37990    0.16456    1.000
    N3889    N        0.69141    0.27291    0.15770    1.000
    N3890    N        0.67676    0.40278    0.13478    1.000
    N3891    N        0.66411    0.50807    0.14640    1.000
    Si3892   Si       0.65879    0.49279    0.18600    1.000
    Si3893   Si       0.64817    0.42781    0.20191    1.000
    N3894    N        0.67676    0.45237    0.18121    1.000
    N3895    N        0.67253    0.38820    0.20357    1.000
    N3896    N        0.65507    0.29585    0.27239    1.000
    Si3897   Si       0.67489    0.29052    0.35517    1.000
    Si3898   Si       0.68505    0.35516    0.35336    1.000
    N3899    N        0.68648    0.36058    0.27033    1.000
    Si3900   Si       0.69044    0.31815    0.28508    1.000
    N3901    N        0.65496    0.25983    0.33105    1.000
    N3902    N        0.69225    0.32072    0.32962    1.000
    N3903    N        0.65321    0.38304    0.34533    1.000
    N3904    N        0.64608    0.48309    0.27025    1.000
    N3905    N        0.67328    0.43427    0.31086    1.000
    Si3906   Si       0.64238    0.46738    0.31062    1.000
    N3907    N        0.63879    0.48313    0.35101    1.000
    Si3908   Si       0.63825    0.40294    0.31014    1.000
    N3909    N        0.64372    0.30749    0.37770    1.000
    N3910    N        0.65486    0.28969    0.44393    1.000
    N3911    N        0.65896    0.35030    0.45874    1.000
    Si3912   Si       0.65527    0.32985    0.41707    1.000
    Si3913   Si       0.65258    0.31316    0.48218    1.000
    N3914    N        0.68934    0.34907    0.39704    1.000
    Si3915   Si       0.68450    0.26332    0.42420    1.000
    Si3916   Si       0.63751    0.45148    0.45409    1.000
    Si3917   Si       0.64237    0.45343    0.38248    1.000
    N3918    N        0.67041    0.44643    0.48034    1.000
    N3919    N        0.64065    0.47386    0.41930    1.000
    N3920    N        0.68647    0.44425    0.38262    1.000
    N3921    N        0.67191    0.27508    0.54875    1.000
    Si3922   Si       0.64789    0.32780    0.61097    1.000
    N3923    N        0.68580    0.32277    0.50691    1.000
    N3924    N        0.63517    0.33043    0.57019    1.000
    N3925    N        0.64515    0.38490    0.51876    1.000
    Si3926   Si       0.67478    0.47874    0.53989    1.000
    Si3927   Si       0.67344    0.47558    0.60978    1.000
    Si3928   Si       0.67359    0.41231    0.50594    1.000
    Si3929   Si       0.66315    0.40032    0.61512    1.000
    N3930    N        0.68578    0.43683    0.54141    1.000
    N3931    N        0.68590    0.50151    0.57698    1.000
    N3932    N        0.69071    0.43474    0.60993    1.000
    N3933    N        0.63442    0.49638    0.53001    1.000
    N3934    N        0.68033    0.35761    0.61881    1.000
    Si3935   Si       0.66325    0.28028    0.66537    1.000
    N3936    N        0.64544    0.28772    0.62713    1.000
    N3937    N        0.66188    0.32092    0.68839    1.000
    Si3938   Si       0.66386    0.36072    0.66188    1.000
    N3939    N        0.63566    0.26528    0.69836    1.000
    N3940    N        0.65195    0.40369    0.65675    1.000
    N3941    N        0.68177    0.49846    0.64704    1.000
    N3942    N        0.67276    0.49120    0.71051    1.000
    N3943    N        0.66486    0.41318    0.72469    1.000
    N3944    N        0.66034    0.35211    0.80842    1.000
    Si3945   Si       0.66637    0.32270    0.77608    1.000
    N3946    N        0.68332    0.28400    0.78476    1.000
    Si3947   Si       0.68851    0.38557    0.81908    1.000
    N3948    N        0.67476    0.39730    0.85916    1.000
    N3949    N        0.66975    0.46379    0.84416    1.000
    N3950    N        0.67506    0.42162    0.79528    1.000
    Si3951   Si       0.64595    0.42309    0.76230    1.000
    N3952    N        0.68845    0.49311    0.78220    1.000
    Si3953   Si       0.64004    0.43265    0.84515    1.000
    Si3954   Si       0.66384    0.50214    0.86343    1.000
    Si3955   Si       0.65646    0.49399    0.75032    1.000
    Si3956   Si       0.69265    0.45846    0.80863    1.000
    N3957    N        0.64005    0.36566    0.91788    1.000
    Si3958   Si       0.67900    0.35094    0.92503    1.000
    N3959    N        0.67676    0.31026    0.91019    1.000
    N3960    N        0.68534    0.35695    0.96816    1.000
    Si3961   Si       0.64111    0.28587    0.90236    1.000
    Si3962   Si       0.63609    0.38813    0.88234    1.000
    Si3963   Si       0.67253    0.45423    0.98921    1.000
    Si3964   Si       0.65712    0.45418    0.91862    1.000
    N3965    N        0.65472    0.49600    0.90580    1.000
    N3966    N        0.64184    0.44888    0.95781    1.000
    Si3967   Si       0.66034    0.38319    0.99562    1.000
    Si3968   Si       0.66699    0.53841    0.05901    1.000
    Si3969   Si       0.67544    0.60753    0.07813    1.000
    N3970    N        0.67046    0.61608    0.03479    1.000
    N3971    N        0.65610    0.56932    0.08606    1.000
    N3972    N        0.63465    0.54511    0.02771    1.000
    N3973    N        0.65811    0.50302    0.08291    1.000
    N3974    N        0.66272    0.64520    0.09632    1.000
    N3975    N        0.65082    0.70699    0.01871    1.000
    Si3976   Si       0.64816    0.75430    0.10558    1.000
    N3977    N        0.66413    0.60924    0.17898    1.000
    N3978    N        0.68653    0.50782    0.21548    1.000
    Si3979   Si       0.66433    0.69929    0.15823    1.000
    Si3980   Si       0.66714    0.70108    0.24192    1.000
    N3981    N        0.65467    0.73990    0.14513    1.000
    N3982    N        0.67377    0.70319    0.19998    1.000
    Si3983   Si       0.66400    0.56933    0.30431    1.000
    N3984    N        0.67229    0.54533    0.33908    1.000
    N3985    N        0.67096    0.54726    0.26971    1.000
    Si3986   Si       0.68804    0.62185    0.26298    1.000
    N3987    N        0.68949    0.60441    0.30180    1.000
    N3988    N        0.64629    0.61215    0.24981    1.000
    Si3989   Si       0.67846    0.50762    0.25798    1.000
    Si3990   Si       0.63879    0.52581    0.35867    1.000
    Si3991   Si       0.66862    0.72998    0.33742    1.000
    N3992    N        0.65902    0.70113    0.30718    1.000
    N3993    N        0.68341    0.66683    0.26088    1.000
    N3994    N        0.68323    0.60130    0.37536    1.000
    Si3995   Si       0.68340    0.55742    0.38144    1.000
    N3996    N        0.67269    0.59486    0.44274    1.000
    N3997    N        0.65081    0.53896    0.39952    1.000
    Si3998   Si       0.67308    0.62453    0.41180    1.000
    N3999    N        0.63516    0.53310    0.46565    1.000
    Si4000   Si       0.63457    0.57618    0.45622    1.000
    N4001    N        0.66541    0.70493    0.43886    1.000
    N4002    N        0.68847    0.71788    0.37402    1.000
    N4003    N        0.64001    0.67913    0.48645    1.000
    Si4004   Si       0.68487    0.73326    0.41410    1.000
    Si4005   Si       0.67805    0.69700    0.47882    1.000
    N4006    N        0.63545    0.64595    0.41489    1.000
    Si4007   Si       0.65512    0.59803    0.52903    1.000
    N4008    N        0.65280    0.56406    0.55552    1.000
    Si4009   Si       0.68648    0.54429    0.57233    1.000
    N4010    N        0.68534    0.56138    0.61454    1.000
    N4011    N        0.69254    0.60745    0.50901    1.000
    N4012    N        0.64309    0.63109    0.55291    1.000
    Si4013   Si       0.65931    0.66782    0.56962    1.000
    N4014    N        0.66971    0.74325    0.55262    1.000
    N4015    N        0.65408    0.66430    0.61235    1.000
    N4016    N        0.69464    0.67824    0.54740    1.000
    N4017    N        0.69582    0.73187    0.49738    1.000
    N4018    N        0.66533    0.60939    0.66386    1.000
    N4019    N        0.67850    0.58754    0.73416    1.000
    Si4020   Si       0.67556    0.57692    0.69261    1.000
    Si4021   Si       0.65367    0.57683    0.63652    1.000
    N4022    N        0.64586    0.55184    0.67116    1.000
    Si4023   Si       0.64856    0.50786    0.67519    1.000
    Si4024   Si       0.67186    0.65077    0.64921    1.000
    N4025    N        0.67401    0.68064    0.68256    1.000
    N4026    N        0.64099    0.73996    0.66797    1.000
    Si4027   Si       0.65293    0.57171    0.76535    1.000
    Si4028   Si       0.67917    0.59277    0.83027    1.000
    N4029    N        0.67841    0.56418    0.79872    1.000
    N4030    N        0.65138    0.58307    0.86163    1.000
    N4031    N        0.63654    0.53251    0.75292    1.000
    N4032    N        0.66336    0.63276    0.81397    1.000
    N4033    N        0.67768    0.67139    0.75409    1.000
    N4034    N        0.64591    0.73070    0.78109    1.000
    Si4035   Si       0.63986    0.69235    0.76015    1.000
    N4036    N        0.67528    0.75007    0.83843    1.000
    N4037    N        0.68221    0.53203    0.97443    1.000
    Si4038   Si       0.65400    0.57704    0.90404    1.000
    Si4039   Si       0.64502    0.52173    0.99154    1.000
    N4040    N        0.63339    0.60396    0.93341    1.000
    N4041    N        0.63842    0.70937    0.88239    1.000
    Si4042   Si       0.65577    0.63178    0.95497    1.000
    Si4043   Si       0.64736    0.68836    0.97977    1.000
    N4044    N        0.66592    0.67205    0.94362    1.000
    Si4045   Si       0.66949    0.73947    0.88251    1.000
    Si4046   Si       0.67688    0.85874    0.05510    1.000
    N4047    N        0.67588    0.84132    0.09431    1.000
    N4048    N        0.68328    0.83059    0.02152    1.000
    N4049    N        0.68531    0.77030    0.08741    1.000
    N4050    N        0.63975    0.88457    0.05192    1.000
    N4051    N        0.66570    0.94146    0.08567    1.000
    Si4052   Si       0.68024    0.97553    0.01358    1.000
    Si4053   Si       0.67616    0.98601    0.08676    1.000
    N4054    N        0.64883    0.94392    0.01868    1.000
    N4055    N        0.68574    0.00122    0.04876    1.000
    Si4056   Si       0.65292    0.84231    0.13141    1.000
    N4057    N        0.67185    0.80514    0.14513    1.000
    N4058    N        0.65511    0.86655    0.16610    1.000
    Si4059   Si       0.66850    0.77193    0.17174    1.000
    N4060    N        0.64874    0.78167    0.20838    1.000
    N4061    N        0.68549    0.93094    0.16012    1.000
    N4062    N        0.66770    0.89968    0.22395    1.000
    N4063    N        0.65105    0.98888    0.16759    1.000
    Si4064   Si       0.68222    0.89495    0.18341    1.000
    Si4065   Si       0.64444    0.98003    0.20980    1.000
    Si4066   Si       0.69191    0.97652    0.16966    1.000
    N4067    N        0.68687    0.96993    0.21427    1.000
    Si4068   Si       0.68256    0.80325    0.34111    1.000
    N4069    N        0.68219    0.76680    0.31705    1.000
    N4070    N        0.64257    0.80635    0.35378    1.000
    N4071    N        0.65803    0.87323    0.35264    1.000
    Si4072   Si       0.69317    0.87178    0.32830    1.000
    N4073    N        0.68056    0.89196    0.29256    1.000
    N4074    N        0.66729    0.95549    0.28338    1.000
    Si4075   Si       0.65257    0.91626    0.36263    1.000
    Si4076   Si       0.64343    0.91821    0.29008    1.000
    Si4077   Si       0.68657    0.96915    0.32116    1.000
    N4078    N        0.68927    0.93632    0.35022    1.000
    N4079    N        0.66446    0.00464    0.33977    1.000
    Si4080   Si       0.69686    0.89132    0.25387    1.000
    Si4081   Si       0.65460    0.78582    0.45523    1.000
    N4082    N        0.65619    0.76679    0.41661    1.000
    Si4083   Si       0.65467    0.85941    0.46481    1.000
    N4084    N        0.63623    0.76933    0.49277    1.000
    Si4085   Si       0.63788    0.00494    0.43417    1.000
    Si4086   Si       0.64543    0.93312    0.43361    1.000
    N4087    N        0.66728    0.97040    0.42945    1.000
    N4088    N        0.66502    0.89773    0.44437    1.000
    N4089    N        0.65131    0.81329    0.54107    1.000
    Si4090   Si       0.67024    0.77579    0.52200    1.000
    Si4091   Si       0.68984    0.82737    0.55478    1.000
    N4092    N        0.63817    0.87394    0.56630    1.000
    Si4093   Si       0.66971    0.90001    0.55314    1.000
    Si4094   Si       0.67934    0.98054    0.60819    1.000
    N4095    N        0.65185    0.95331    0.59074    1.000
    Si4096   Si       0.67868    0.99851    0.53476    1.000
    N4097    N        0.64507    0.92514    0.52787    1.000
    Si4098   Si       0.64276    0.84348    0.69117    1.000
    Si4099   Si       0.68164    0.82956    0.63720    1.000
    N4100    N        0.65430    0.86202    0.63254    1.000
    Si4101   Si       0.66902    0.76893    0.68259    1.000
    N4102    N        0.66056    0.80959    0.67098    1.000
    N4103    N        0.66996    0.87919    0.69910    1.000
    N4104    N        0.67788    0.76367    0.72535    1.000
    Si4105   Si       0.68613    0.99444    0.67963    1.000
    N4106    N        0.66253    0.99432    0.64481    1.000
    Si4107   Si       0.68048    0.91790    0.67794    1.000
    N4108    N        0.64369    0.92880    0.65895    1.000
    N4109    N        0.69137    0.95481    0.69712    1.000
    Si4110   Si       0.65133    0.83163    0.76702    1.000
    N4111    N        0.64664    0.79311    0.78318    1.000
    Si4112   Si       0.68763    0.84015    0.85832    1.000
    Si4113   Si       0.64286    0.76099    0.81320    1.000
    Si4114   Si       0.64259    0.76164    0.75029    1.000
    N4115    N        0.69194    0.84328    0.75888    1.000
    N4116    N        0.68037    0.88147    0.84662    1.000
    N4117    N        0.68145    0.97889    0.76123    1.000
    Si4118   Si       0.64910    0.89299    0.82049    1.000
    Si4119   Si       0.65417    0.95989    0.84641    1.000
    N4120    N        0.65011    0.93438    0.81067    1.000
    Si4121   Si       0.65558    0.94733    0.76961    1.000
    N4122    N        0.68570    0.91724    0.75296    1.000
    N4123    N        0.69354    0.94868    0.86028    1.000
    N4124    N        0.65023    0.82616    0.87416    1.000
    Si4125   Si       0.65630    0.82109    0.98895    1.000
    N4126    N        0.67169    0.77107    0.91428    1.000
    Si4127   Si       0.67090    0.81347    0.91362    1.000
    N4128    N        0.66438    0.83698    0.94822    1.000
    N4129    N        0.65568    0.77884    0.97965    1.000
    Si4130   Si       0.68647    0.87539    0.94771    1.000
    Si4131   Si       0.68692    0.76304    0.95516    1.000
    Si4132   Si       0.63589    0.98880    0.95555    1.000
    Si4133   Si       0.63944    0.92247    0.98056    1.000
    Si4134   Si       0.63888    0.92308    0.91093    1.000
    N4135    N        0.67336    0.99677    0.97631    1.000
    N4136    N        0.67801    0.89948    0.98292    1.000
    N4137    N        0.67655    0.90268    0.91303    1.000
    N4138    N        0.64257    0.94800    0.94457    1.000
    N4139    N        0.72874    0.05406    0.06809    1.000
    Si4140   Si       0.72192    0.07349    0.10671    1.000
    N4141    N        0.71608    0.06341    0.00404    1.000
    Si4142   Si       0.69754    0.04372    0.04079    1.000
    Si4143   Si       0.72501    0.18845    0.04852    1.000
    N4144    N        0.72581    0.23103    0.04470    1.000
    N4145    N        0.70117    0.23047    0.10845    1.000
    N4146    N        0.74475    0.17317    0.01251    1.000
    Si4147   Si       0.69823    0.25255    0.06881    1.000
    Si4148   Si       0.74658    0.14705    0.11552    1.000
    N4149    N        0.75100    0.17022    0.07912    1.000
    Si4150   Si       0.73118    0.04644    0.17919    1.000
    N4151    N        0.74225    0.04432    0.13488    1.000
    N4152    N        0.73482    0.09086    0.18460    1.000
    N4153    N        0.75281    0.04126    0.21846    1.000
    Si4154   Si       0.69135    0.08950    0.20240    1.000
    N4155    N        0.70277    0.08483    0.24384    1.000
    N4156    N        0.70445    0.15836    0.12330    1.000
    N4157    N        0.72382    0.22255    0.18639    1.000
    Si4158   Si       0.72796    0.20197    0.22517    1.000
    N4159    N        0.70401    0.10626    0.31215    1.000
    Si4160   Si       0.74328    0.01484    0.29004    1.000
    Si4161   Si       0.74453    0.07262    0.24839    1.000
    N4162    N        0.74723    0.05789    0.28825    1.000
    N4163    N        0.70328    0.05913    0.36687    1.000
    N4164    N        0.73794    0.22932    0.25718    1.000
    Si4165   Si       0.73031    0.14044    0.31653    1.000
    N4166    N        0.71730    0.23773    0.32084    1.000
    N4167    N        0.71440    0.17586    0.29440    1.000
    N4168    N        0.72765    0.15056    0.36057    1.000
    Si4169   Si       0.74161    0.20995    0.29536    1.000
    Si4170   Si       0.73221    0.25455    0.36098    1.000
    N4171    N        0.72940    0.08236    0.48434    1.000
    N4172    N        0.74413    0.11640    0.41974    1.000
    Si4173   Si       0.74620    0.05581    0.37950    1.000
    Si4174   Si       0.70078    0.11383    0.49378    1.000
    Si4175   Si       0.70405    0.13659    0.42106    1.000
    N4176    N        0.72825    0.20227    0.48703    1.000
    N4177    N        0.74567    0.21785    0.37801    1.000
    N4178    N        0.71820    0.25191    0.44595    1.000
    N4179    N        0.71231    0.17875    0.42051    1.000
    Si4180   Si       0.73482    0.20949    0.44592    1.000
    Si4181   Si       0.71307    0.18671    0.37873    1.000
    N4182    N        0.73346    0.07413    0.55469    1.000
    Si4183   Si       0.72415    0.05372    0.51860    1.000
    Si4184   Si       0.70557    0.08555    0.58643    1.000
    N4185    N        0.74984    0.01839    0.51758    1.000
    N4186    N        0.71621    0.12817    0.59040    1.000
    Si4187   Si       0.74173    0.13938    0.55787    1.000
    N4188    N        0.71863    0.14203    0.52068    1.000
    Si4189   Si       0.71911    0.18682    0.52427    1.000
    N4190    N        0.74587    0.18358    0.55811    1.000
    N4191    N        0.72690    0.24750    0.57783    1.000
    Si4192   Si       0.69529    0.09078    0.65543    1.000
    N4193    N        0.72104    0.07390    0.62453    1.000
    Si4194   Si       0.73786    0.04738    0.70138    1.000
    N4195    N        0.71019    0.08199    0.69528    1.000
    N4196    N        0.72444    0.01658    0.67552    1.000
    N4197    N        0.71986    0.03640    0.74410    1.000
    N4198    N        0.73696    0.13149    0.65640    1.000
    N4199    N        0.70015    0.18732    0.62817    1.000
    N4200    N        0.71478    0.19167    0.69780    1.000
    Si4201   Si       0.69594    0.21195    0.66338    1.000
    Si4202   Si       0.71041    0.14730    0.62793    1.000
    N4203    N        0.69665    0.25575    0.66353    1.000
    Si4204   Si       0.72102    0.09188    0.79453    1.000
    N4205    N        0.70728    0.09463    0.83576    1.000
    N4206    N        0.74584    0.12580    0.78556    1.000
    N4207    N        0.75119    0.06208    0.79933    1.000
    N4208    N        0.73283    0.01089    0.85082    1.000
    Si4209   Si       0.73446    0.10677    0.86876    1.000
    N4210    N        0.74238    0.24651    0.79480    1.000
    N4211    N        0.70565    0.16312    0.83092    1.000
    N4212    N        0.70615    0.18922    0.76795    1.000
    Si4213   Si       0.74550    0.20778    0.77205    1.000
    Si4214   Si       0.74525    0.15223    0.81819    1.000
    Si4215   Si       0.71730    0.03433    0.88315    1.000
    N4216    N        0.72186    0.11679    0.95929    1.000
    Si4217   Si       0.70732    0.01002    0.95475    1.000
    N4218    N        0.74961    0.06504    0.87502    1.000
    Si4219   Si       0.69601    0.08455    0.97301    1.000
    N4220    N        0.71015    0.13064    0.89301    1.000
    N4221    N        0.72935    0.00678    0.91589    1.000
    Si4222   Si       0.70530    0.14715    0.93096    1.000
    N4223    N        0.69540    0.19379    0.88826    1.000
    N4224    N        0.72178    0.25304    0.92533    1.000
    N4225    N        0.71048    0.18857    0.95244    1.000
    Si4226   Si       0.74706    0.19639    0.97501    1.000
    N4227    N        0.71869    0.28769    0.08553    1.000
    N4228    N        0.70819    0.32234    0.02961    1.000
    Si4229   Si       0.74119    0.30968    0.05645    1.000
    N4230    N        0.74072    0.37716    0.00314    1.000
    Si4231   Si       0.72689    0.37870    0.08766    1.000
    Si4232   Si       0.74009    0.45141    0.08532    1.000
    Si4233   Si       0.72679    0.41521    0.01928    1.000
    N4234    N        0.73212    0.41616    0.06258    1.000
    N4235    N        0.70790    0.45815    0.11400    1.000
    N4236    N        0.74682    0.48698    0.06140    1.000
    Si4237   Si       0.71920    0.26864    0.12419    1.000
    N4238    N        0.73875    0.35976    0.22780    1.000
    N4239    N        0.72480    0.32879    0.16911    1.000
    Si4240   Si       0.72630    0.31763    0.21825    1.000
    N4241    N        0.75080    0.37977    0.12738    1.000
    N4242    N        0.74246    0.43595    0.16709    1.000
    Si4243   Si       0.70357    0.43402    0.14987    1.000
    N4244    N        0.73493    0.50520    0.16271    1.000
    N4245    N        0.72336    0.30144    0.26159    1.000
    Si4246   Si       0.75021    0.26995    0.25551    1.000
    Si4247   Si       0.72390    0.38307    0.26189    1.000
    N4248    N        0.71910    0.38499    0.35770    1.000
    Si4249   Si       0.71270    0.45159    0.29192    1.000
    N4250    N        0.73239    0.44689    0.33055    1.000
    N4251    N        0.71508    0.49203    0.28073    1.000
    N4252    N        0.72362    0.42700    0.25789    1.000
    Si4253   Si       0.69691    0.42427    0.34630    1.000
    Si4254   Si       0.73661    0.28296    0.47235    1.000
    N4255    N        0.72701    0.32580    0.45575    1.000
    N4256    N        0.70022    0.27042    0.38297    1.000
    Si4257   Si       0.72475    0.37543    0.40235    1.000
    Si4258   Si       0.69992    0.35004    0.47853    1.000
    N4259    N        0.74385    0.44788    0.49039    1.000
    Si4260   Si       0.72117    0.45248    0.41006    1.000
    Si4261   Si       0.74211    0.40893    0.46800    1.000
    N4262    N        0.70689    0.39077    0.48626    1.000
    N4263    N        0.71519    0.48291    0.43891    1.000
    Si4264   Si       0.70757    0.46890    0.47876    1.000
    N4265    N        0.72863    0.41214    0.42628    1.000
    N4266    N        0.71840    0.31967    0.57266    1.000
    Si4267   Si       0.72131    0.35437    0.59994    1.000
    Si4268   Si       0.70573    0.30072    0.53653    1.000
    N4269    N        0.73884    0.28167    0.51409    1.000
    Si4270   Si       0.74057    0.28661    0.59123    1.000
    N4271    N        0.73139    0.39062    0.57923    1.000
    Si4272   Si       0.71410    0.42931    0.57400    1.000
    N4273    N        0.70633    0.49437    0.51339    1.000
    Si4274   Si       0.74871    0.47438    0.52459    1.000
    N4275    N        0.74575    0.45789    0.56345    1.000
    Si4276   Si       0.73392    0.27477    0.66922    1.000
    N4277    N        0.72731    0.30396    0.70225    1.000
    N4278    N        0.69980    0.36967    0.68709    1.000
    N4279    N        0.74762    0.29298    0.63279    1.000
    Si4280   Si       0.69835    0.33282    0.70982    1.000
    Si4281   Si       0.70462    0.40629    0.70926    1.000
    Si4282   Si       0.70632    0.47895    0.68415    1.000
    N4283    N        0.74542    0.48932    0.66426    1.000
    N4284    N        0.71868    0.43813    0.68566    1.000
    N4285    N        0.73365    0.40558    0.74113    1.000
    Si4286   Si       0.73125    0.36954    0.76412    1.000
    N4287    N        0.71058    0.28089    0.85002    1.000
    N4288    N        0.73071    0.37957    0.80711    1.000
    Si4289   Si       0.70449    0.25948    0.81300    1.000
    N4290    N        0.69794    0.34543    0.75177    1.000
    N4291    N        0.73732    0.41818    0.85953    1.000
    N4292    N        0.73616    0.45835    0.80397    1.000
    Si4293   Si       0.73888    0.48816    0.77329    1.000
    Si4294   Si       0.70655    0.28005    0.89559    1.000
    N4295    N        0.73820    0.30948    0.96675    1.000
    N4296    N        0.71428    0.36694    0.90369    1.000
    N4297    N        0.74734    0.30369    0.89278    1.000
    Si4298   Si       0.74949    0.26906    0.95500    1.000
    Si4299   Si       0.71824    0.34198    0.99235    1.000
    N4300    N        0.72125    0.50590    0.91502    1.000
    N4301    N        0.69760    0.43771    0.91766    1.000
    Si4302   Si       0.72430    0.46682    0.93473    1.000
    N4303    N        0.70633    0.47515    0.97478    1.000
    Si4304   Si       0.70647    0.40690    0.88816    1.000
    N4305    N        0.71531    0.53123    0.10450    1.000
    Si4306   Si       0.73693    0.52799    0.06715    1.000
    N4307    N        0.71557    0.61665    0.09144    1.000
    N4308    N        0.70409    0.53350    0.03859    1.000
    N4309    N        0.74071    0.62077    0.02979    1.000
    Si4310   Si       0.74850    0.60420    0.06884    1.000
    Si4311   Si       0.70317    0.62915    0.01064    1.000
    Si4312   Si       0.70362    0.65996    0.10262    1.000
    N4313    N        0.71297    0.73857    0.02798    1.000
    N4314    N        0.71098    0.69081    0.07054    1.000
    N4315    N        0.70573    0.67223    0.99897    1.000
    Si4316   Si       0.69331    0.69989    0.03221    1.000
    N4317    N        0.73854    0.62523    0.16904    1.000
    N4318    N        0.71283    0.60458    0.23101    1.000
    N4319    N        0.74273    0.54042    0.23857    1.000
    N4320    N        0.71576    0.56202    0.17756    1.000
    Si4321   Si       0.70562    0.60272    0.18697    1.000
    Si4322   Si       0.72379    0.52369    0.20221    1.000
    Si4323   Si       0.73458    0.54423    0.14187    1.000
    Si4324   Si       0.75111    0.58108    0.23633    1.000
    Si4325   Si       0.73658    0.66908    0.15894    1.000
    N4326    N        0.69854    0.67812    0.14267    1.000
    Si4327   Si       0.71228    0.72411    0.20713    1.000
    N4328    N        0.74507    0.69690    0.19154    1.000
    Si4329   Si       0.70429    0.61908    0.34065    1.000
    N4330    N        0.74716    0.61400    0.33961    1.000
    N4331    N        0.72430    0.72067    0.30956    1.000
    N4332    N        0.74132    0.66302    0.28508    1.000
    Si4333   Si       0.70017    0.68407    0.29903    1.000
    Si4334   Si       0.70836    0.75270    0.28448    1.000
    N4335    N        0.70381    0.66113    0.33817    1.000
    N4336    N        0.69748    0.73110    0.24946    1.000
    Si4337   Si       0.70278    0.58858    0.47150    1.000
    N4338    N        0.71559    0.54824    0.47242    1.000
    N4339    N        0.73966    0.61233    0.46516    1.000
    N4340    N        0.71598    0.53856    0.40019    1.000
    Si4341   Si       0.73083    0.52500    0.43570    1.000
    Si4342   Si       0.72062    0.75587    0.46914    1.000
    N4343    N        0.72341    0.73684    0.42985    1.000
    Si4344   Si       0.71056    0.67943    0.37745    1.000
    Si4345   Si       0.73308    0.65058    0.44751    1.000
    N4346    N        0.70903    0.66817    0.48086    1.000
    N4347    N        0.70771    0.65284    0.41194    1.000
    N4348    N        0.75229    0.69560    0.38020    1.000
    N4349    N        0.72585    0.54786    0.55224    1.000
    Si4350   Si       0.72685    0.53289    0.51234    1.000
    N4351    N        0.74770    0.53695    0.62087    1.000
    Si4352   Si       0.71132    0.64654    0.51811    1.000
    Si4353   Si       0.70493    0.72080    0.53914    1.000
    N4354    N        0.74698    0.72766    0.54770    1.000
    N4355    N        0.73316    0.71748    0.61831    1.000
    N4356    N        0.71076    0.55402    0.68048    1.000
    Si4357   Si       0.70767    0.53351    0.64111    1.000
    Si4358   Si       0.71643    0.60792    0.74027    1.000
    N4359    N        0.74783    0.57767    0.73734    1.000
    Si4360   Si       0.75114    0.56747    0.69373    1.000
    Si4361   Si       0.74186    0.67426    0.62436    1.000
    N4362    N        0.72731    0.70853    0.70992    1.000
    N4363    N        0.71343    0.64496    0.63534    1.000
    Si4364   Si       0.72033    0.75195    0.71365    1.000
    N4365    N        0.72191    0.63776    0.71076    1.000
    Si4366   Si       0.69972    0.67622    0.71848    1.000
    Si4367   Si       0.73674    0.63427    0.67079    1.000
    Si4368   Si       0.73983    0.75171    0.64359    1.000
    N4369    N        0.71905    0.59745    0.84510    1.000
    N4370    N        0.73823    0.53023    0.78591    1.000
    N4371    N        0.70061    0.51947    0.84935    1.000
    N4372    N        0.71926    0.62370    0.78055    1.000
    Si4373   Si       0.74500    0.60640    0.81158    1.000
    Si4374   Si       0.69942    0.52801    0.80588    1.000
    N4375    N        0.71180    0.68772    0.81254    1.000
    Si4376   Si       0.70896    0.72460    0.83423    1.000
    N4377    N        0.74134    0.74906    0.81790    1.000
    Si4378   Si       0.69159    0.65586    0.79183    1.000
    Si4379   Si       0.72786    0.58194    0.88392    1.000
    Si4380   Si       0.73380    0.60023    0.95127    1.000
    N4381    N        0.74029    0.55873    0.95937    1.000
    Si4382   Si       0.70784    0.53809    0.93758    1.000
    Si4383   Si       0.73598    0.51258    0.87330    1.000
    N4384    N        0.69501    0.61482    0.96916    1.000
    N4385    N        0.69535    0.56928    0.91013    1.000
    Si4386   Si       0.71297    0.51468    0.99880    1.000
    N4387    N        0.70823    0.72183    0.87941    1.000
    N4388    N        0.73533    0.67233    0.92290    1.000
    Si4389   Si       0.73111    0.74180    0.99015    1.000
    Si4390   Si       0.70790    0.68149    0.95507    1.000
    Si4391   Si       0.74461    0.70451    0.89614    1.000
    N4392    N        0.70514    0.72392    0.96042    1.000
    N4393    N        0.73664    0.79943    0.04958    1.000
    Si4394   Si       0.72312    0.81073    0.00912    1.000
    Si4395   Si       0.69742    0.80504    0.10969    1.000
    Si4396   Si       0.72050    0.76299    0.06556    1.000
    Si4397   Si       0.69412    0.93324    0.11855    1.000
    N4398    N        0.70720    0.88942    0.04738    1.000
    Si4399   Si       0.70998    0.90928    0.01000    1.000
    N4400    N        0.71509    0.95248    0.01295    1.000
    Si4401   Si       0.74170    0.89619    0.07500    1.000
    N4402    N        0.72774    0.90647    0.11621    1.000
    Si4403   Si       0.75105    0.97645    0.01239    1.000
    N4404    N        0.73598    0.80824    0.13015    1.000
    Si4405   Si       0.74231    0.78835    0.16968    1.000
    Si4406   Si       0.74584    0.85829    0.21421    1.000
    N4407    N        0.71001    0.76102    0.18264    1.000
    N4408    N        0.72440    0.88131    0.18236    1.000
    N4409    N        0.75329    0.81933    0.20042    1.000
    N4410    N        0.73116    0.99775    0.17514    1.000
    N4411    N        0.70377    0.97775    0.12103    1.000
    Si4412   Si       0.74827    0.99806    0.21934    1.000
    Si4413   Si       0.75062    0.89372    0.15051    1.000
    Si4414   Si       0.74057    0.99937    0.13132    1.000
    Si4415   Si       0.72458    0.82711    0.27802    1.000
    N4416    N        0.73550    0.78445    0.27670    1.000
    N4417    N        0.71603    0.85376    0.24710    1.000
    N4418    N        0.70167    0.83274    0.31514    1.000
    N4419    N        0.73125    0.88458    0.34358    1.000
    N4420    N        0.72539    0.98682    0.31814    1.000
    N4421    N        0.72310    0.99938    0.25521    1.000
    Si4422   Si       0.74413    0.98833    0.35732    1.000
    N4423    N        0.72263    0.92565    0.25715    1.000
    Si4424   Si       0.69914    0.96311    0.25391    1.000
    Si4425   Si       0.72610    0.91996    0.36713    1.000
    N4426    N        0.70641    0.80182    0.37742    1.000
    N4427    N        0.72882    0.85517    0.42235    1.000
    Si4428   Si       0.72349    0.82543    0.45561    1.000
    Si4429   Si       0.74027    0.82104    0.39642    1.000
    N4430    N        0.69784    0.79037    0.46159    1.000
    N4431    N        0.69692    0.85284    0.47503    1.000
    N4432    N        0.73298    0.90585    0.47274    1.000
    N4433    N        0.71366    0.92177    0.40801    1.000
    Si4434   Si       0.70742    0.96814    0.41716    1.000
    N4435    N        0.71331    0.99556    0.38660    1.000
    N4436    N        0.74146    0.97502    0.44344    1.000
    Si4437   Si       0.70893    0.89088    0.43946    1.000
    N4438    N        0.71156    0.79813    0.53092    1.000
    Si4439   Si       0.72865    0.87332    0.50350    1.000
    N4440    N        0.69875    0.86797    0.53888    1.000
    Si4441   Si       0.73627    0.82120    0.61067    1.000
    N4442    N        0.69312    0.81704    0.59676    1.000
    Si4443   Si       0.75188    0.80223    0.51661    1.000
    Si4444   Si       0.73693    0.88716    0.57102    1.000
    N4445    N        0.75278    0.84869    0.58461    1.000
    Si4446   Si       0.74483    0.97698    0.52004    1.000
    N4447    N        0.70325    0.91082    0.58213    1.000
    N4448    N        0.70451    0.97034    0.51227    1.000
    Si4449   Si       0.73592    0.99557    0.59041    1.000
    Si4450   Si       0.72337    0.92660    0.61679    1.000
    N4451    N        0.71862    0.96886    0.62217    1.000
    N4452    N        0.69517    0.00268    0.57550    1.000
    N4453    N        0.71182    0.76375    0.67216    1.000
    Si4454   Si       0.73522    0.87113    0.67349    1.000
    N4455    N        0.72320    0.83876    0.64908    1.000
    N4456    N        0.73243    0.87314    0.71648    1.000
    Si4457   Si       0.69456    0.87917    0.73472    1.000
    N4458    N        0.71751    0.90787    0.65564    1.000
    Si4459   Si       0.70558    0.95366    0.73865    1.000
    Si4460   Si       0.74634    0.99090    0.64931    1.000
    N4461    N        0.74673    0.96036    0.74135    1.000
    Si4462   Si       0.72287    0.84174    0.79102    1.000
    N4463    N        0.70889    0.82034    0.82839    1.000
    Si4464   Si       0.73979    0.78995    0.82569    1.000
    N4465    N        0.74759    0.87848    0.78358    1.000
    N4466    N        0.74966    0.80926    0.78710    1.000
    Si4467   Si       0.73259    0.96745    0.84883    1.000
    N4468    N        0.74628    0.95172    0.81028    1.000
    N4469    N        0.72185    0.78479    0.97726    1.000
    N4470    N        0.70789    0.83197    0.89666    1.000
    Si4471   Si       0.74038    0.85835    0.90732    1.000
    N4472    N        0.72876    0.86781    0.94923    1.000
    N4473    N        0.73881    0.89429    0.88543    1.000
    Si4474   Si       0.69898    0.90861    0.87612    1.000
    N4475    N        0.73831    0.00700    0.98467    1.000
    N4476    N        0.78205    0.05338    0.01805    1.000
    N4477    N        0.79467    0.05076    0.08832    1.000
    Si4478   Si       0.76806    0.03662    0.05764    1.000
    N4479    N        0.75258    0.10389    0.11471    1.000
    Si4480   Si       0.81147    0.08487    0.01107    1.000
    Si4481   Si       0.78789    0.18240    0.06531    1.000
    N4482    N        0.79096    0.21912    0.04480    1.000
    Si4483   Si       0.76204    0.24534    0.02507    1.000
    Si4484   Si       0.78028    0.15105    0.00426    1.000
    N4485    N        0.80647    0.15263    0.04096    1.000
    Si4486   Si       0.77985    0.06788    0.12652    1.000
    Si4487   Si       0.77702    0.09864    0.19254    1.000
    N4488    N        0.79850    0.07161    0.16728    1.000
    N4489    N        0.77515    0.09940    0.23776    1.000
    N4490    N        0.80436    0.13574    0.19504    1.000
    N4491    N        0.79219    0.21559    0.18351    1.000
    N4492    N        0.75892    0.17207    0.22034    1.000
    Si4493   Si       0.78742    0.14296    0.23722    1.000
    N4494    N        0.78123    0.16164    0.13957    1.000
    Si4495   Si       0.78156    0.17325    0.18214    1.000
    Si4496   Si       0.76015    0.24659    0.18322    1.000
    N4497    N        0.76623    0.02670    0.35247    1.000
    Si4498   Si       0.80380    0.02510    0.32697    1.000
    Si4499   Si       0.76945    0.08410    0.31581    1.000
    N4500    N        0.76888    0.12649    0.30357    1.000
    N4501    N        0.75986    0.09194    0.35947    1.000
    N4502    N        0.81004    0.06734    0.31675    1.000
    Si4503   Si       0.80081    0.15617    0.30682    1.000
    N4504    N        0.77894    0.19412    0.31030    1.000
    N4505    N        0.79199    0.02000    0.46949    1.000
    N4506    N        0.79728    0.08889    0.45401    1.000
    Si4507   Si       0.76047    0.13046    0.38094    1.000
    Si4508   Si       0.76958    0.00772    0.43384    1.000
    Si4509   Si       0.75390    0.08408    0.44690    1.000
    N4510    N        0.75732    0.04676    0.41937    1.000
    Si4511   Si       0.78429    0.20392    0.39163    1.000
    Si4512   Si       0.80686    0.18260    0.45933    1.000
    N4513    N        0.78911    0.16249    0.38184    1.000
    N4514    N        0.77638    0.20329    0.43462    1.000
    Si4515   Si       0.77651    0.08223    0.55992    1.000
    N4516    N        0.78800    0.07921    0.60119    1.000
    Si4517   Si       0.79165    0.02295    0.51243    1.000
    N4518    N        0.78189    0.12443    0.55356    1.000
    N4519    N        0.80015    0.06158    0.53114    1.000
    N4520    N        0.78455    0.23248    0.53598    1.000
    Si4521   Si       0.76176    0.22099    0.57224    1.000
    N4522    N        0.77958    0.22334    0.61042    1.000
    N4523    N        0.79205    0.16810    0.49744    1.000
    Si4524   Si       0.80950    0.14110    0.52654    1.000
    N4525    N        0.76022    0.01838    0.61959    1.000
    N4526    N        0.77151    0.07054    0.67319    1.000
    N4527    N        0.77533    0.02268    0.71720    1.000
    Si4528   Si       0.77193    0.11467    0.67499    1.000
    Si4529   Si       0.80329    0.05973    0.70821    1.000
    Si4530   Si       0.76266    0.06021    0.63148    1.000
    N4531    N        0.80478    0.12388    0.64751    1.000
    N4532    N        0.77695    0.07802    0.74067    1.000
    Si4533   Si       0.78977    0.22636    0.65174    1.000
    Si4534   Si       0.79011    0.24554    0.72047    1.000
    N4535    N        0.78798    0.18563    0.67023    1.000
    N4536    N        0.76638    0.13915    0.71352    1.000
    Si4537   Si       0.75793    0.18047    0.70232    1.000
    N4538    N        0.77070    0.20860    0.73483    1.000
    N4539    N        0.76942    0.25012    0.67997    1.000
    Si4540   Si       0.76078    0.04442    0.83755    1.000
    Si4541   Si       0.76358    0.04166    0.76188    1.000
    N4542    N        0.80540    0.03725    0.83348    1.000
    Si4543   Si       0.77359    0.11877    0.75332    1.000
    N4544    N        0.76509    0.12968    0.85038    1.000
    N4545    N        0.78266    0.00660    0.78227    1.000
    N4546    N        0.77089    0.18591    0.80373    1.000
    Si4547   Si       0.78294    0.22512    0.82222    1.000
    N4548    N        0.77105    0.24808    0.85707    1.000
    N4549    N        0.80685    0.25094    0.79515    1.000
    N4550    N        0.81133    0.13598    0.76584    1.000
    N4551    N        0.79870    0.02791    0.89845    1.000
    Si4552   Si       0.80021    0.12527    0.87867    1.000
    Si4553   Si       0.76384    0.10915    0.95393    1.000
    Si4554   Si       0.77974    0.06722    0.90841    1.000
    N4555    N        0.76527    0.06448    0.94874    1.000
    N4556    N        0.77668    0.11146    0.91290    1.000
    N4557    N        0.78507    0.11317    0.98910    1.000
    Si4558   Si       0.75372    0.04808    0.98685    1.000
    N4559    N        0.75547    0.23839    0.98275    1.000
    Si4560   Si       0.80551    0.18199    0.93156    1.000
    N4561    N        0.77659    0.16886    0.96125    1.000
    N4562    N        0.80709    0.22290    0.91889    1.000
    Si4563   Si       0.79276    0.34863    0.09099    1.000
    N4564    N        0.77332    0.28742    0.03489    1.000
    N4565    N        0.75433    0.34626    0.07345    1.000
    Si4566   Si       0.80923    0.31160    0.02414    1.000
    Si4567   Si       0.78551    0.38041    0.00484    1.000
    Si4568   Si       0.76985    0.47991    0.02385    1.000
    N4569    N        0.77381    0.44101    0.11012    1.000
    N4570    N        0.76011    0.44255    0.00585    1.000
    N4571    N        0.80424    0.50432    0.10804    1.000
    N4572    N        0.79023    0.32459    0.12848    1.000
    Si4573   Si       0.76155    0.34305    0.15440    1.000
    Si4574   Si       0.78169    0.37350    0.22247    1.000
    Si4575   Si       0.79727    0.28105    0.12948    1.000
    N4576    N        0.78773    0.36115    0.18307    1.000
    N4577    N        0.76058    0.26360    0.14326    1.000
    N4578    N        0.75473    0.27963    0.21223    1.000
    Si4579   Si       0.75816    0.47345    0.17975    1.000
    N4580    N        0.75021    0.48307    0.22106    1.000
    Si4581   Si       0.80887    0.46288    0.12522    1.000
    N4582    N        0.78350    0.41759    0.22225    1.000
    N4583    N        0.79826    0.48049    0.16297    1.000
    Si4584   Si       0.77177    0.41295    0.14334    1.000
    N4585    N        0.77222    0.34109    0.33437    1.000
    Si4586   Si       0.79099    0.35412    0.29491    1.000
    N4587    N        0.78386    0.27718    0.28034    1.000
    N4588    N        0.79942    0.34774    0.25315    1.000
    N4589    N        0.76601    0.28068    0.36155    1.000
    Si4590   Si       0.80745    0.27264    0.36513    1.000
    N4591    N        0.75661    0.38281    0.29225    1.000
    Si4592   Si       0.75654    0.38099    0.33629    1.000
    N4593    N        0.77733    0.46784    0.27556    1.000
    Si4594   Si       0.76939    0.44870    0.35296    1.000
    N4595    N        0.78445    0.40790    0.35519    1.000
    N4596    N        0.80225    0.47344    0.33932    1.000
    Si4597   Si       0.80927    0.48718    0.29760    1.000
    Si4598   Si       0.75585    0.50614    0.26185    1.000
    Si4599   Si       0.75931    0.44516    0.24347    1.000
    Si4600   Si       0.77242    0.32246    0.37202    1.000
    N4601    N        0.76011    0.34792    0.40450    1.000
    Si4602   Si       0.76916    0.33568    0.44578    1.000
    N4603    N        0.77626    0.28971    0.45520    1.000
    N4604    N        0.77029    0.37575    0.46778    1.000
    Si4605   Si       0.79290    0.50503    0.47402    1.000
    N4606    N        0.76227    0.46385    0.39343    1.000
    Si4607   Si       0.80199    0.47373    0.41354    1.000
    N4608    N        0.80655    0.46846    0.45609    1.000
    N4609    N        0.77998    0.29090    0.56881    1.000
    Si4610   Si       0.78173    0.27475    0.52768    1.000
    Si4611   Si       0.76883    0.39476    0.60403    1.000
    N4612    N        0.80428    0.39698    0.58028    1.000
    Si4613   Si       0.80884    0.45263    0.61372    1.000
    N4614    N        0.76111    0.35696    0.62457    1.000
    N4615    N        0.78897    0.32903    0.68503    1.000
    Si4616   Si       0.77863    0.32352    0.64320    1.000
    Si4617   Si       0.76593    0.31501    0.71887    1.000
    N4618    N        0.77800    0.28096    0.74221    1.000
    N4619    N        0.78522    0.43178    0.69269    1.000
    N4620    N        0.77242    0.43160    0.62723    1.000
    Si4621   Si       0.76813    0.43158    0.73180    1.000
    N4622    N        0.80379    0.49233    0.63209    1.000
    Si4623   Si       0.75713    0.44810    0.66423    1.000
    N4624    N        0.76163    0.47693    0.73942    1.000
    Si4625   Si       0.79019    0.50715    0.72187    1.000
    N4626    N        0.77208    0.35553    0.85662    1.000
    N4627    N        0.76700    0.30358    0.81635    1.000
    Si4628   Si       0.79588    0.33386    0.82534    1.000
    Si4629   Si       0.77254    0.27610    0.78351    1.000
    Si4630   Si       0.80146    0.36770    0.75684    1.000
    N4631    N        0.76587    0.34789    0.74658    1.000
    Si4632   Si       0.75386    0.28777    0.85343    1.000
    N4633    N        0.79388    0.42137    0.82939    1.000
    N4634    N        0.79819    0.40979    0.75806    1.000
    Si4635   Si       0.76019    0.45005    0.83845    1.000
    Si4636   Si       0.76104    0.39124    0.83565    1.000
    N4637    N        0.76255    0.48099    0.86696    1.000
    Si4638   Si       0.77820    0.32432    0.95671    1.000
    N4639    N        0.78993    0.28486    0.94537    1.000
    N4640    N        0.78452    0.35306    0.92568    1.000
    N4641    N        0.79542    0.33815    0.99576    1.000
    Si4642   Si       0.75404    0.34711    0.89498    1.000
    N4643    N        0.79775    0.40135    0.96888    1.000
    N4644    N        0.80815    0.42356    0.89941    1.000
    Si4645   Si       0.78803    0.44216    0.97112    1.000
    Si4646   Si       0.78731    0.46263    0.90106    1.000
    N4647    N        0.76593    0.45918    0.93773    1.000
    N4648    N        0.78811    0.61904    0.08002    1.000
    N4649    N        0.76395    0.56334    0.06947    1.000
    Si4650   Si       0.80500    0.57850    0.07804    1.000
    Si4651   Si       0.77562    0.62295    0.00559    1.000
    N4652    N        0.75754    0.51243    0.99840    1.000
    N4653    N        0.79063    0.58238    0.99941    1.000
    Si4654   Si       0.75303    0.70142    0.08380    1.000
    Si4655   Si       0.79090    0.64590    0.11345    1.000
    Si4656   Si       0.79627    0.72651    0.02455    1.000
    N4657    N        0.78265    0.69649    0.05243    1.000
    N4658    N        0.80847    0.64840    0.01820    1.000
    N4659    N        0.75471    0.67097    0.11638    1.000
    N4660    N        0.75050    0.74453    0.09047    1.000
    N4661    N        0.80702    0.75797    0.05275    1.000
    N4662    N        0.80437    0.62529    0.14782    1.000
    N4663    N        0.78062    0.59351    0.20981    1.000
    Si4664   Si       0.77270    0.59968    0.16696    1.000
    N4665    N        0.77349    0.56194    0.14656    1.000
    Si4666   Si       0.80876    0.53738    0.13805    1.000
    Si4667   Si       0.78241    0.69120    0.21374    1.000
    Si4668   Si       0.80867    0.74226    0.23793    1.000
    N4669    N        0.80368    0.65542    0.22140    1.000
    N4670    N        0.79168    0.52832    0.28460    1.000
    Si4671   Si       0.78589    0.59920    0.35759    1.000
    N4672    N        0.76397    0.59381    0.27436    1.000
    Si4673   Si       0.76029    0.62756    0.29910    1.000
    Si4674   Si       0.79977    0.56987    0.28618    1.000
    N4675    N        0.81063    0.58004    0.32742    1.000
    N4676    N        0.79160    0.71500    0.31968    1.000
    Si4677   Si       0.77818    0.68759    0.28721    1.000
    N4678    N        0.79832    0.64897    0.29915    1.000
    N4679    N        0.77639    0.71422    0.25191    1.000
    Si4680   Si       0.75633    0.72273    0.34237    1.000
    N4681    N        0.77373    0.52689    0.44105    1.000
    N4682    N        0.78254    0.57318    0.39085    1.000
    Si4683   Si       0.80285    0.54617    0.41608    1.000
    N4684    N        0.80429    0.63657    0.37478    1.000
    N4685    N        0.79099    0.74183    0.43194    1.000
    Si4686   Si       0.80270    0.67301    0.46684    1.000
    N4687    N        0.77296    0.66403    0.43645    1.000
    N4688    N        0.80481    0.63423    0.48698    1.000
    Si4689   Si       0.78231    0.66914    0.39523    1.000
    Si4690   Si       0.75866    0.73503    0.40509    1.000
    N4691    N        0.76333    0.75864    0.36837    1.000
    N4692    N        0.79162    0.58105    0.51555    1.000
    N4693    N        0.79375    0.53432    0.56814    1.000
    N4694    N        0.76490    0.59795    0.58920    1.000
    Si4695   Si       0.79718    0.53856    0.52582    1.000
    Si4696   Si       0.75611    0.55477    0.58337    1.000
    N4697    N        0.76563    0.51294    0.50903    1.000
    Si4698   Si       0.76757    0.61199    0.49684    1.000
    Si4699   Si       0.77444    0.63383    0.56681    1.000
    Si4700   Si       0.77875    0.73582    0.51843    1.000
    N4701    N        0.79766    0.73925    0.59594    1.000
    Si4702   Si       0.76364    0.71615    0.58466    1.000
    N4703    N        0.76433    0.67179    0.58798    1.000
    N4704    N        0.75119    0.63392    0.53077    1.000
    N4705    N        0.78293    0.70196    0.49238    1.000
    N4706    N        0.80921    0.56047    0.63373    1.000
    N4707    N        0.75986    0.59817    0.66398    1.000
    Si4708   Si       0.78555    0.59528    0.62747    1.000
    N4709    N        0.77716    0.53460    0.69036    1.000
    Si4710   Si       0.77586    0.51923    0.65026    1.000
    N4711    N        0.81020    0.63025    0.62374    1.000
    N4712    N        0.76404    0.66716    0.66086    1.000
    Si4713   Si       0.76495    0.70048    0.69041    1.000
    Si4714   Si       0.81077    0.73432    0.63679    1.000
    N4715    N        0.77815    0.73808    0.66665    1.000
    Si4716   Si       0.79159    0.75062    0.70592    1.000
    N4717    N        0.79572    0.70833    0.71954    1.000
    N4718    N        0.77904    0.58103    0.80152    1.000
    Si4719   Si       0.76829    0.55516    0.76880    1.000
    N4720    N        0.80202    0.53221    0.75567    1.000
    N4721    N        0.76949    0.64083    0.81638    1.000
    N4722    N        0.77986    0.70374    0.78990    1.000
    Si4723   Si       0.78597    0.74234    0.80822    1.000
    N4724    N        0.76286    0.69359    0.85793    1.000
    Si4725   Si       0.80645    0.68800    0.86104    1.000
    Si4726   Si       0.80736    0.69256    0.75825    1.000
    Si4727   Si       0.75454    0.68151    0.81642    1.000
    N4728    N        0.80901    0.73280    0.84578    1.000
    N4729    N        0.80247    0.55362    0.93527    1.000
    Si4730   Si       0.78856    0.57307    0.89986    1.000
    Si4731   Si       0.77935    0.54543    0.97489    1.000
    N4732    N        0.75771    0.55013    0.87857    1.000
    N4733    N        0.76056    0.63115    0.96632    1.000
    N4734    N        0.75695    0.60481    0.91206    1.000
    N4735    N        0.79592    0.65409    0.89348    1.000
    N4736    N        0.77354    0.73406    0.91240    1.000
    Si4737   Si       0.76744    0.64544    0.92645    1.000
    Si4738   Si       0.79391    0.72541    0.95059    1.000
    N4739    N        0.77179    0.73187    0.98853    1.000
    Si4740   Si       0.77043    0.82775    0.04726    1.000
    N4741    N        0.79763    0.80611    0.10264    1.000
    N4742    N        0.75837    0.85680    0.07781    1.000
    N4743    N        0.75880    0.83376    0.00436    1.000
    Si4744   Si       0.79151    0.76074    0.09581    1.000
    Si4745   Si       0.76632    0.83370    0.11314    1.000
    Si4746   Si       0.78226    0.96586    0.07520    1.000
    N4747    N        0.77176    0.92551    0.06166    1.000
    Si4748   Si       0.78792    0.91574    0.02253    1.000
    N4749    N        0.78835    0.95558    0.00321    1.000
    N4750    N        0.75884    0.99552    0.05103    1.000
    N4751    N        0.77457    0.97909    0.11537    1.000
    N4752    N        0.75253    0.90115    0.99920    1.000
    N4753    N        0.78170    0.86253    0.14429    1.000
    N4754    N        0.78271    0.77369    0.17167    1.000
    Si4755   Si       0.79575    0.80373    0.20383    1.000
    Si4756   Si       0.79738    0.95196    0.13783    1.000
    Si4757   Si       0.79621    0.94397    0.19801    1.000
    N4758    N        0.77324    0.88655    0.23392    1.000
    N4759    N        0.77333    0.92821    0.16360    1.000
    N4760    N        0.77783    0.96654    0.22933    1.000
    Si4761   Si       0.79010    0.79279    0.35785    1.000
    Si4762   Si       0.76488    0.85912    0.33066    1.000
    Si4763   Si       0.77905    0.79611    0.28104    1.000
    N4764    N        0.79765    0.77969    0.31520    1.000
    N4765    N        0.76685    0.83750    0.29178    1.000
    N4766    N        0.76706    0.82976    0.36414    1.000
    N4767    N        0.80194    0.88371    0.33004    1.000
    N4768    N        0.79295    0.78288    0.24225    1.000
    N4769    N        0.79274    0.93374    0.28305    1.000
    Si4770   Si       0.79914    0.97561    0.26557    1.000
    N4771    N        0.78616    0.00453    0.29402    1.000
    Si4772   Si       0.76454    0.92443    0.25257    1.000
    N4773    N        0.75946    0.94869    0.36645    1.000
    N4774    N        0.75808    0.76677    0.49232    1.000
    Si4775   Si       0.78225    0.77818    0.45759    1.000
    Si4776   Si       0.79381    0.84522    0.46827    1.000
    N4777    N        0.81000    0.85816    0.42855    1.000
    N4778    N        0.75575    0.80023    0.43157    1.000
    N4779    N        0.75518    0.83754    0.48868    1.000
    N4780    N        0.79822    0.99039    0.40565    1.000
    N4781    N        0.78512    0.92653    0.43021    1.000
    Si4782   Si       0.79433    0.94854    0.39305    1.000
    N4783    N        0.80975    0.88761    0.48135    1.000
    Si4784   Si       0.75873    0.93946    0.46107    1.000
    N4785    N        0.78120    0.79929    0.54917    1.000
    Si4786   Si       0.79244    0.83587    0.56961    1.000
    Si4787   Si       0.80926    0.76982    0.56489    1.000
    Si4788   Si       0.80153    0.89220    0.52526    1.000
    Si4789   Si       0.78674    0.94326    0.58003    1.000
    N4790    N        0.76418    0.91274    0.60409    1.000
    N4791    N        0.75888    0.89139    0.53440    1.000
    N4792    N        0.77513    0.95625    0.49723    1.000
    N4793    N        0.75529    0.96897    0.56318    1.000
    N4794    N        0.81163    0.96222    0.60761    1.000
    N4795    N        0.75362    0.78488    0.62132    1.000
    N4796    N        0.77902    0.87388    0.66692    1.000
    N4797    N        0.78513    0.83319    0.73908    1.000
    Si4798   Si       0.76483    0.87014    0.74500    1.000
    N4799    N        0.75677    0.76723    0.72918    1.000
    Si4800   Si       0.77365    0.98058    0.71224    1.000
    Si4801   Si       0.79113    0.88588    0.62803    1.000
    Si4802   Si       0.80526    0.95249    0.65036    1.000
    N4803    N        0.77135    0.96435    0.67244    1.000
    N4804    N        0.79307    0.89844    0.72876    1.000
    Si4805   Si       0.77563    0.79402    0.75770    1.000
    N4806    N        0.76754    0.79082    0.85987    1.000
    N4807    N        0.80431    0.76939    0.77900    1.000
    N4808    N        0.78662    0.89985    0.83729    1.000
    Si4809   Si       0.76573    0.91234    0.80342    1.000
    Si4810   Si       0.76838    0.96557    0.77631    1.000
    N4811    N        0.79923    0.93387    0.78207    1.000
    Si4812   Si       0.80039    0.81524    0.87842    1.000
    N4813    N        0.80489    0.86926    0.96317    1.000
    Si4814   Si       0.76300    0.86647    0.97440    1.000
    N4815    N        0.78012    0.84258    0.90510    1.000
    Si4816   Si       0.81220    0.86843    0.92184    1.000
    Si4817   Si       0.78640    0.75541    0.87683    1.000
    Si4818   Si       0.77341    0.91812    0.87505    1.000
    N4819    N        0.79561    0.98117    0.94049    1.000
    Si4820   Si       0.76894    0.99316    0.90539    1.000
    N4821    N        0.76510    0.96053    0.87970    1.000
    Si4822   Si       0.83477    0.05939    0.07524    1.000
    N4823    N        0.83170    0.09142    0.04870    1.000
    N4824    N        0.85508    0.03471    0.04403    1.000
    N4825    N        0.85654    0.06264    0.11074    1.000
    N4826    N        0.84285    0.12953    0.10305    1.000
    Si4827   Si       0.84195    0.13318    0.05862    1.000
    N4828    N        0.85732    0.23311    0.04790    1.000
    Si4829   Si       0.82245    0.23019    0.07214    1.000
    N4830    N        0.82234    0.19175    0.09392    1.000
    Si4831   Si       0.86567    0.25362    0.00604    1.000
    N4832    N        0.85681    0.10216    0.16813    1.000
    N4833    N        0.85898    0.02680    0.17124    1.000
    Si4834   Si       0.83933    0.06554    0.18229    1.000
    N4835    N        0.84240    0.06025    0.22531    1.000
    Si4836   Si       0.84702    0.13985    0.18784    1.000
    Si4837   Si       0.82231    0.16202    0.12573    1.000
    N4838    N        0.85121    0.17051    0.15732    1.000
    N4839    N        0.86929    0.14606    0.22545    1.000
    Si4840   Si       0.84464    0.09481    0.31762    1.000
    N4841    N        0.83929    0.01421    0.35008    1.000
    N4842    N        0.86626    0.07894    0.35065    1.000
    N4843    N        0.86514    0.10262    0.27797    1.000
    N4844    N        0.83680    0.13913    0.32443    1.000
    N4845    N        0.84609    0.23488    0.27947    1.000
    Si4846   Si       0.85839    0.14543    0.26903    1.000
    N4847    N        0.87277    0.20084    0.34773    1.000
    N4848    N        0.81661    0.15612    0.26510    1.000
    N4849    N        0.84012    0.03695    0.42219    1.000
    N4850    N        0.84874    0.05630    0.48113    1.000
    Si4851   Si       0.83499    0.10939    0.46156    1.000
    Si4852   Si       0.81708    0.05009    0.45354    1.000
    Si4853   Si       0.86672    0.16070    0.42042    1.000
    N4854    N        0.86250    0.20597    0.41773    1.000
    N4855    N        0.83240    0.21417    0.47951    1.000
    N4856    N        0.81625    0.23315    0.38016    1.000
    Si4857   Si       0.86432    0.22963    0.45490    1.000
    Si4858   Si       0.85768    0.22751    0.38109    1.000
    N4859    N        0.83426    0.15073    0.44781    1.000
    Si4860   Si       0.83934    0.07429    0.51841    1.000
    N4861    N        0.85367    0.12073    0.58810    1.000
    Si4862   Si       0.85783    0.01739    0.55547    1.000
    N4863    N        0.83590    0.11474    0.50490    1.000
    N4864    N        0.86207    0.01739    0.59717    1.000
    Si4865   Si       0.82436    0.10094    0.61312    1.000
    N4866    N        0.87037    0.06108    0.54569    1.000
    N4867    N        0.83217    0.17547    0.54531    1.000
    Si4868   Si       0.85446    0.16429    0.57982    1.000
    N4869    N        0.83751    0.18213    0.61639    1.000
    Si4870   Si       0.81288    0.20365    0.51659    1.000
    N4871    N        0.84301    0.25700    0.59069    1.000
    Si4872   Si       0.85049    0.22406    0.61987    1.000
    Si4873   Si       0.85445    0.10490    0.67161    1.000
    N4874    N        0.83975    0.03621    0.70432    1.000
    N4875    N        0.84889    0.07642    0.63834    1.000
    N4876    N        0.82985    0.09741    0.70700    1.000
    Si4877   Si       0.84296    0.11321    0.74515    1.000
    N4878    N        0.85949    0.14768    0.67019    1.000
    N4879    N        0.83322    0.24208    0.72723    1.000
    Si4880   Si       0.82145    0.16284    0.65263    1.000
    N4881    N        0.83336    0.23609    0.65856    1.000
    Si4882   Si       0.85842    0.23613    0.69267    1.000
    N4883    N        0.85501    0.01772    0.77408    1.000
    N4884    N        0.86037    0.09071    0.77697    1.000
    Si4885   Si       0.86419    0.12002    0.81041    1.000
    Si4886   Si       0.82142    0.01226    0.80134    1.000
    Si4887   Si       0.82563    0.04708    0.86835    1.000
    N4888    N        0.81481    0.20962    0.84737    1.000
    N4889    N        0.83088    0.14446    0.82825    1.000
    N4890    N        0.84401    0.19446    0.77853    1.000
    Si4891   Si       0.84175    0.23802    0.77016    1.000
    Si4892   Si       0.83930    0.17535    0.85749    1.000
    Si4893   Si       0.81145    0.16796    0.79544    1.000
    N4894    N        0.86290    0.02314    0.86984    1.000
    N4895    N        0.82198    0.08803    0.87978    1.000
    Si4896   Si       0.86529    0.05249    0.95471    1.000
    N4897    N        0.84533    0.07593    0.98425    1.000
    N4898    N        0.85505    0.00951    0.94768    1.000
    Si4899   Si       0.86621    0.09772    0.88897    1.000
    N4900    N        0.82166    0.15875    0.89529    1.000
    Si4901   Si       0.80705    0.23876    0.87744    1.000
    N4902    N        0.84315    0.17691    0.95194    1.000
    N4903    N        0.84837    0.29181    0.02182    1.000
    Si4904   Si       0.84254    0.28944    0.06897    1.000
    Si4905   Si       0.84351    0.36719    0.04604    1.000
    N4906    N        0.82236    0.33001    0.06343    1.000
    N4907    N        0.81332    0.26768    0.09094    1.000
    N4908    N        0.86373    0.35974    0.00842    1.000
    N4909    N        0.83608    0.45124    0.09175    1.000
    Si4910   Si       0.82698    0.49138    0.07495    1.000
    Si4911   Si       0.82553    0.41635    0.07235    1.000
    N4912    N        0.86673    0.39983    0.06475    1.000
    Si4913   Si       0.83791    0.48721    0.00109    1.000
    N4914    N        0.81663    0.38369    0.10262    1.000
    N4915    N        0.81158    0.47904    0.03644    1.000
    N4916    N        0.80811    0.39278    0.03970    1.000
    Si4917   Si       0.85733    0.28664    0.18813    1.000
    N4918    N        0.83358    0.27442    0.15335    1.000
    Si4919   Si       0.83103    0.35596    0.18167    1.000
    N4920    N        0.85618    0.35816    0.14867    1.000
    N4921    N        0.84168    0.32054    0.20527    1.000
    Si4922   Si       0.84458    0.39622    0.13340    1.000
    Si4923   Si       0.82095    0.42448    0.19933    1.000
    N4924    N        0.81710    0.41974    0.15633    1.000
    N4925    N        0.84047    0.46066    0.21353    1.000
    N4926    N        0.84326    0.38778    0.20890    1.000
    Si4927   Si       0.83873    0.48849    0.18053    1.000
    N4928    N        0.85100    0.29516    0.26425    1.000
    N4929    N        0.83524    0.27451    0.33259    1.000
    Si4930   Si       0.82427    0.27045    0.29096    1.000
    Si4931   Si       0.83838    0.33084    0.24550    1.000
    N4932    N        0.82516    0.37294    0.31312    1.000
    N4933    N        0.86481    0.35829    0.26450    1.000
    Si4934   Si       0.84110    0.46100    0.35750    1.000
    N4935    N        0.84904    0.48305    0.28292    1.000
    Si4936   Si       0.85568    0.39327    0.29164    1.000
    N4937    N        0.85614    0.42407    0.33989    1.000
    Si4938   Si       0.82481    0.39365    0.35187    1.000
    N4939    N        0.86444    0.49803    0.34823    1.000
    Si4940   Si       0.86760    0.46258    0.24942    1.000
    Si4941   Si       0.81949    0.29350    0.46360    1.000
    N4942    N        0.85404    0.27171    0.44835    1.000
    Si4943   Si       0.83568    0.34015    0.40832    1.000
    N4944    N        0.81692    0.33647    0.44981    1.000
    N4945    N        0.81427    0.31170    0.38543    1.000
    N4946    N        0.83826    0.37979    0.39024    1.000
    Si4947   Si       0.81392    0.37228    0.47323    1.000
    N4948    N        0.83496    0.44763    0.39730    1.000
    Si4949   Si       0.83117    0.44338    0.48106    1.000
    N4950    N        0.83419    0.40626    0.45787    1.000
    Si4951   Si       0.85162    0.40967    0.41786    1.000
    N4952    N        0.87130    0.46285    0.48689    1.000
    N4953    N        0.85024    0.31293    0.56448    1.000
    Si4954   Si       0.83966    0.32541    0.52391    1.000
    Si4955   Si       0.81744    0.29256    0.58732    1.000
    N4956    N        0.81747    0.36168    0.51618    1.000
    N4957    N        0.81548    0.29218    0.50715    1.000
    N4958    N        0.86759    0.38088    0.55331    1.000
    N4959    N        0.87112    0.35648    0.61646    1.000
    N4960    N        0.82809    0.43482    0.52329    1.000
    Si4961   Si       0.82776    0.39398    0.54362    1.000
    Si4962   Si       0.85121    0.46364    0.54650    1.000
    N4963    N        0.82545    0.47068    0.57972    1.000
    N4964    N        0.81817    0.31238    0.62609    1.000
    N4965    N        0.83689    0.35303    0.73660    1.000
    N4966    N        0.86114    0.32349    0.68012    1.000
    Si4967   Si       0.85928    0.32124    0.63784    1.000
    Si4968   Si       0.82810    0.34595    0.69418    1.000
    N4969    N        0.83110    0.38068    0.66875    1.000
    N4970    N        0.82554    0.48970    0.70350    1.000
    N4971    N        0.85884    0.43240    0.70580    1.000
    Si4972   Si       0.85359    0.46879    0.72902    1.000
    Si4973   Si       0.82504    0.42363    0.67809    1.000
    Si4974   Si       0.86132    0.39205    0.63856    1.000
    N4975    N        0.83968    0.43355    0.63765    1.000
    N4976    N        0.83589    0.32243    0.83689    1.000
    Si4977   Si       0.85046    0.36002    0.82235    1.000
    N4978    N        0.81393    0.36595    0.80066    1.000
    Si4979   Si       0.85435    0.29877    0.86628    1.000
    N4980    N        0.85017    0.38467    0.85893    1.000
    N4981    N        0.84991    0.45905    0.84566    1.000
    N4982    N        0.86076    0.41857    0.79136    1.000
    N4983    N        0.83914    0.47722    0.76938    1.000
    Si4984   Si       0.82764    0.42151    0.85994    1.000
    Si4985   Si       0.85987    0.45980    0.80256    1.000
    Si4986   Si       0.83736    0.50243    0.85941    1.000
    Si4987   Si       0.81810    0.40891    0.79737    1.000
    N4988    N        0.83101    0.27233    0.88992    1.000
    N4989    N        0.85088    0.37515    0.93257    1.000
    N4990    N        0.85634    0.25921    0.96287    1.000
    Si4991   Si       0.82390    0.25902    0.93336    1.000
    N4992    N        0.82691    0.46283    0.96721    1.000
    N4993    N        0.82258    0.48948    0.90081    1.000
    Si4994   Si       0.84841    0.47402    0.93142    1.000
    Si4995   Si       0.81007    0.38895    0.92819    1.000
    N4996    N        0.83579    0.57067    0.04911    1.000
    N4997    N        0.82983    0.56444    0.11037    1.000
    Si4998   Si       0.82888    0.56612    0.00743    1.000
    Si4999   Si       0.86173    0.55337    0.08173    1.000
    N5000    N        0.86389    0.51156    0.06942    1.000
    N5001    N        0.83396    0.71399    0.00737    1.000
    N5002    N        0.82208    0.67334    0.09934    1.000
    Si5003   Si       0.81950    0.66934    0.05649    1.000
    N5004    N        0.86673    0.66798    0.04750    1.000
    N5005    N        0.84753    0.60297    0.19471    1.000
    N5006    N        0.83573    0.53211    0.17320    1.000
    Si5007   Si       0.86112    0.56231    0.18837    1.000
    Si5008   Si       0.81706    0.61416    0.22374    1.000
    Si5009   Si       0.84587    0.62805    0.16014    1.000
    Si5010   Si       0.84303    0.70437    0.12358    1.000
    Si5011   Si       0.81859    0.75100    0.16723    1.000
    N5012    N        0.85579    0.66997    0.16418    1.000
    N5013    N        0.85961    0.73073    0.15768    1.000
    Si5014   Si       0.85278    0.70261    0.19096    1.000
    N5015    N        0.81287    0.71998    0.20117    1.000
    N5016    N        0.80923    0.73443    0.12532    1.000
    Si5017   Si       0.85217    0.57345    0.33190    1.000
    N5018    N        0.82989    0.59598    0.26320    1.000
    N5019    N        0.86359    0.61411    0.32359    1.000
    N5020    N        0.86518    0.55180    0.29748    1.000
    Si5021   Si       0.83783    0.63258    0.29261    1.000
    N5022    N        0.83483    0.73303    0.27166    1.000
    N5023    N        0.85284    0.74450    0.33920    1.000
    Si5024   Si       0.82159    0.74365    0.31150    1.000
    N5025    N        0.86569    0.66185    0.27533    1.000
    Si5026   Si       0.86692    0.70533    0.26789    1.000
    N5027    N        0.86102    0.56544    0.37283    1.000
    Si5028   Si       0.85223    0.55608    0.47828    1.000
    N5029    N        0.83556    0.56637    0.43701    1.000
    Si5030   Si       0.86343    0.52387    0.38313    1.000
    Si5031   Si       0.86061    0.58781    0.40882    1.000
    N5032    N        0.82544    0.52649    0.49556    1.000
    N5033    N        0.82330    0.51084    0.40033    1.000
    N5034    N        0.86693    0.63226    0.40270    1.000
    N5035    N        0.85964    0.74325    0.40537    1.000
    N5036    N        0.81987    0.69416    0.38988    1.000
    N5037    N        0.84068    0.69050    0.45321    1.000
    Si5038   Si       0.84407    0.65942    0.37683    1.000
    Si5039   Si       0.82769    0.72013    0.42214    1.000
    N5040    N        0.86356    0.75659    0.47517    1.000
    Si5041   Si       0.82374    0.61089    0.51888    1.000
    N5042    N        0.85829    0.53185    0.60214    1.000
    N5043    N        0.86417    0.59870    0.60163    1.000
    N5044    N        0.81511    0.63305    0.55587    1.000
    N5045    N        0.86094    0.59297    0.49957    1.000
    Si5046   Si       0.83974    0.63367    0.59109    1.000
    Si5047   Si       0.81900    0.51306    0.59755    1.000
    Si5048   Si       0.85988    0.74007    0.51821    1.000
    N5049    N        0.85939    0.67129    0.58426    1.000
    N5050    N        0.81857    0.74573    0.52925    1.000
    N5051    N        0.86763    0.69509    0.51677    1.000
    Si5052   Si       0.85088    0.56642    0.62819    1.000
    N5053    N        0.85699    0.59979    0.73469    1.000
    Si5054   Si       0.83573    0.63620    0.73028    1.000
    Si5055   Si       0.86478    0.69028    0.62154    1.000
    N5056    N        0.86336    0.66757    0.71713    1.000
    N5057    N        0.81144    0.63412    0.69451    1.000
    N5058    N        0.82565    0.69386    0.64221    1.000
    Si5059   Si       0.80846    0.65761    0.65776    1.000
    N5060    N        0.84122    0.59985    0.80666    1.000
    Si5061   Si       0.83213    0.51765    0.78263    1.000
    N5062    N        0.82468    0.52577    0.82463    1.000
    Si5063   Si       0.81424    0.57151    0.82842    1.000
    N5064    N        0.86917    0.53706    0.77543    1.000
    N5065    N        0.81721    0.58443    0.86940    1.000
    N5066    N        0.84578    0.70813    0.77292    1.000
    N5067    N        0.82674    0.66498    0.83047    1.000
    Si5068   Si       0.85710    0.68719    0.80954    1.000
    Si5069   Si       0.85079    0.74497    0.85436    1.000
    N5070    N        0.81590    0.64917    0.76608    1.000
    Si5071   Si       0.81000    0.63217    0.80424    1.000
    Si5072   Si       0.85449    0.59816    0.88712    1.000
    N5073    N        0.85825    0.57404    0.97451    1.000
    Si5074   Si       0.84506    0.54559    0.94280    1.000
    N5075    N        0.81997    0.52496    0.98993    1.000
    N5076    N        0.86863    0.56175    0.90935    1.000
    N5077    N        0.85297    0.63010    0.91633    1.000
    N5078    N        0.86913    0.51006    0.94839    1.000
    Si5079   Si       0.83133    0.66723    0.91569    1.000
    N5080    N        0.84341    0.69750    0.88827    1.000
    N5081    N        0.86477    0.64936    0.97849    1.000
    Si5082   Si       0.85532    0.74618    0.98648    1.000
    Si5083   Si       0.83038    0.67295    0.98878    1.000
    N5084    N        0.82918    0.75184    0.95199    1.000
    N5085    N        0.80999    0.68283    0.95063    1.000
    Si5086   Si       0.84209    0.86163    0.04311    1.000
    N5087    N        0.84493    0.86558    0.08786    1.000
    Si5088   Si       0.83626    0.78921    0.04623    1.000
    Si5089   Si       0.83861    0.82526    0.10393    1.000
    N5090    N        0.86069    0.79633    0.08170    1.000
    N5091    N        0.86374    0.77847    0.01386    1.000
    N5092    N        0.81438    0.82756    0.04170    1.000
    N5093    N        0.82310    0.97866    0.06620    1.000
    Si5094   Si       0.85126    0.99311    0.03786    1.000
    N5095    N        0.82652    0.89583    0.01872    1.000
    Si5096   Si       0.85650    0.95948    0.09133    1.000
    Si5097   Si       0.85246    0.89949    0.11386    1.000
    N5098    N        0.85106    0.97179    0.00184    1.000
    N5099    N        0.82495    0.93257    0.11224    1.000
    Si5100   Si       0.82147    0.85614    0.16356    1.000
    N5101    N        0.83849    0.78431    0.19419    1.000
    N5102    N        0.85146    0.82597    0.14521    1.000
    N5103    N        0.81559    0.84362    0.20405    1.000
    Si5104   Si       0.87101    0.80640    0.17884    1.000
    Si5105   Si       0.81546    0.87757    0.22956    1.000
    Si5106   Si       0.85813    0.98336    0.16557    1.000
    N5107    N        0.82465    0.91333    0.20674    1.000
    N5108    N        0.85550    0.88638    0.15554    1.000
    Si5109   Si       0.86524    0.91215    0.19131    1.000
    N5110    N        0.81665    0.97137    0.17104    1.000
    N5111    N        0.86366    0.98759    0.12211    1.000
    N5112    N        0.83933    0.88395    0.26468    1.000
    Si5113   Si       0.83468    0.89305    0.35582    1.000
    N5114    N        0.84228    0.97655    0.26520    1.000
    N5115    N        0.85601    0.91279    0.32169    1.000
    Si5116   Si       0.82008    0.90503    0.29758    1.000
    Si5117   Si       0.85861    0.77231    0.37228    1.000
    N5118    N        0.85278    0.86021    0.37526    1.000
    N5119    N        0.82559    0.79835    0.38197    1.000
    Si5120   Si       0.85323    0.79849    0.47299    1.000
    Si5121   Si       0.83623    0.83230    0.40635    1.000
    N5122    N        0.86627    0.81715    0.43581    1.000
    N5123    N        0.81072    0.80521    0.47208    1.000
    Si5124   Si       0.81737    0.89927    0.43862    1.000
    Si5125   Si       0.86882    0.93389    0.39834    1.000
    N5126    N        0.82787    0.92490    0.38314    1.000
    Si5127   Si       0.83663    0.00545    0.39250    1.000
    N5128    N        0.86105    0.91156    0.43480    1.000
    N5129    N        0.86817    0.97693    0.40477    1.000
    N5130    N        0.84138    0.79403    0.58073    1.000
    Si5131   Si       0.85497    0.84518    0.59964    1.000
    Si5132   Si       0.86161    0.85166    0.52462    1.000
    N5133    N        0.81805    0.85570    0.53927    1.000
    Si5134   Si       0.86559    0.78276    0.61509    1.000
    N5135    N        0.81371    0.85587    0.60505    1.000
    N5136    N        0.86898    0.81113    0.51256    1.000
    Si5137   Si       0.81439    0.95961    0.51687    1.000
    N5138    N        0.82293    0.00121    0.53118    1.000
    Si5139   Si       0.84892    0.98258    0.61793    1.000
    N5140    N        0.81389    0.92801    0.54819    1.000
    N5141    N        0.84868    0.94744    0.49492    1.000
    N5142    N        0.81997    0.78339    0.70751    1.000
    Si5143   Si       0.82505    0.82212    0.72591    1.000
    N5144    N        0.83656    0.84715    0.69315    1.000
    Si5145   Si       0.85540    0.76698    0.68780    1.000
    N5146    N        0.86646    0.82169    0.63354    1.000
    N5147    N        0.84618    0.75844    0.64606    1.000
    Si5148   Si       0.81715    0.88641    0.68846    1.000
    Si5149   Si       0.82314    0.92834    0.74320    1.000
    Si5150   Si       0.84136    0.99159    0.70040    1.000
    N5151    N        0.84918    0.91002    0.71081    1.000
    N5152    N        0.81377    0.96788    0.72460    1.000
    N5153    N        0.83504    0.98318    0.65963    1.000
    N5154    N        0.82295    0.91256    0.64927    1.000
    Si5155   Si       0.86629    0.91581    0.63726    1.000
    N5156    N        0.82465    0.84059    0.85275    1.000
    N5157    N        0.85032    0.81517    0.76062    1.000
    N5158    N        0.85403    0.77906    0.82660    1.000
    Si5159   Si       0.86032    0.81987    0.84111    1.000
    Si5160   Si       0.84829    0.77712    0.78392    1.000
    Si5161   Si       0.82318    0.88203    0.85499    1.000
    N5162    N        0.83613    0.97720    0.82433    1.000
    N5163    N        0.85210    0.90990    0.83715    1.000
    Si5164   Si       0.83598    0.93708    0.80726    1.000
    Si5165   Si       0.86247    0.98232    0.85759    1.000
    N5166    N        0.86022    0.94165    0.77148    1.000
    N5167    N        0.85248    0.85536    0.91534    1.000
    Si5168   Si       0.85029    0.76962    0.91952    1.000
    N5169    N        0.82058    0.77994    0.89204    1.000
    N5170    N        0.84137    0.96715    0.89371    1.000
    Si5171   Si       0.84376    0.92852    0.91096    1.000
    Si5172   Si       0.82842    0.00049    0.91659    1.000
    N5173    N        0.83495    0.92663    0.95302    1.000
    Si5174   Si       0.84168    0.89120    0.97835    1.000
    Si5175   Si       0.81862    0.96121    0.97428    1.000
    N5176    N        0.81248    0.90157    0.89405    1.000
    N5177    N        0.90319    0.08946    0.03170    1.000
    Si5178   Si       0.87400    0.06129    0.01681    1.000
    Si5179   Si       0.90771    0.13383    0.02300    1.000
    N5180    N        0.92070    0.20119    0.07071    1.000
    Si5181   Si       0.88374    0.19922    0.04577    1.000
    N5182    N        0.89375    0.21062    0.00310    1.000
    N5183    N        0.87624    0.15477    0.04401    1.000
    Si5184   Si       0.92503    0.22898    0.10388    1.000
    N5185    N        0.91229    0.09124    0.12486    1.000
    N5186    N        0.91864    0.02319    0.13527    1.000
    Si5187   Si       0.87666    0.02749    0.12975    1.000
    N5188    N        0.91233    0.05730    0.23626    1.000
    Si5189   Si       0.92646    0.01594    0.23365    1.000
    Si5190   Si       0.86891    0.10050    0.12509    1.000
    N5191    N        0.90817    0.18947    0.19343    1.000
    Si5192   Si       0.91085    0.15631    0.22231    1.000
    N5193    N        0.89054    0.22822    0.13160    1.000
    N5194    N        0.87270    0.25312    0.21043    1.000
    Si5195   Si       0.89160    0.18640    0.15185    1.000
    Si5196   Si       0.91149    0.22952    0.21139    1.000
    N5197    N        0.92201    0.15837    0.13745    1.000
    N5198    N        0.91221    0.02925    0.35261    1.000
    N5199    N        0.87420    0.03513    0.29202    1.000
    Si5200   Si       0.87403    0.03693    0.33637    1.000
    Si5201   Si       0.87314    0.06384    0.25694    1.000
    N5202    N        0.91365    0.14380    0.32996    1.000
    N5203    N        0.91262    0.23888    0.25503    1.000
    N5204    N        0.88067    0.17923    0.28659    1.000
    N5205    N        0.89799    0.25487    0.31536    1.000
    Si5206   Si       0.92257    0.16825    0.29628    1.000
    Si5207   Si       0.87384    0.21762    0.30737    1.000
    Si5208   Si       0.87224    0.15892    0.34294    1.000
    Si5209   Si       0.87452    0.09829    0.39117    1.000
    Si5210   Si       0.88365    0.05375    0.45199    1.000
    N5211    N        0.91537    0.06651    0.48119    1.000
    N5212    N        0.90709    0.03524    0.41992    1.000
    N5213    N        0.91869    0.09776    0.38752    1.000
    Si5214   Si       0.92599    0.05459    0.38476    1.000
    N5215    N        0.86685    0.09601    0.43500    1.000
    N5216    N        0.86725    0.14082    0.38213    1.000
    N5217    N        0.90827    0.15968    0.43463    1.000
    Si5218   Si       0.92216    0.18395    0.46934    1.000
    N5219    N        0.90643    0.22312    0.46632    1.000
    N5220    N        0.90867    0.07110    0.60792    1.000
    N5221    N        0.91651    0.10164    0.54770    1.000
    Si5222   Si       0.88450    0.09273    0.57766    1.000
    Si5223   Si       0.90964    0.06326    0.52438    1.000
    N5224    N        0.89490    0.18189    0.57442    1.000
    Si5225   Si       0.91517    0.21431    0.59672    1.000
    N5226    N        0.90784    0.16127    0.50513    1.000
    N5227    N        0.91007    0.25073    0.57320    1.000
    Si5228   Si       0.92383    0.17229    0.54390    1.000
    N5229    N        0.89359    0.09007    0.68442    1.000
    N5230    N        0.89718    0.02803    0.66187    1.000
    Si5231   Si       0.88138    0.04856    0.69786    1.000
    N5232    N        0.90374    0.04928    0.73679    1.000
    Si5233   Si       0.87909    0.04765    0.62815    1.000
    Si5234   Si       0.91920    0.22492    0.72217    1.000
    N5235    N        0.89206    0.22665    0.62851    1.000
    Si5236   Si       0.88797    0.16230    0.70082    1.000
    N5237    N        0.88566    0.20347    0.70462    1.000
    N5238    N        0.87171    0.14603    0.73746    1.000
    N5239    N        0.92812    0.14830    0.69016    1.000
    N5240    N        0.91048    0.04387    0.80533    1.000
    Si5241   Si       0.88099    0.05284    0.77362    1.000
    Si5242   Si       0.91382    0.07472    0.83377    1.000
    N5243    N        0.87961    0.10009    0.84795    1.000
    N5244    N        0.89345    0.14956    0.80267    1.000
    Si5245   Si       0.88087    0.17587    0.76848    1.000
    N5246    N        0.91627    0.20051    0.76076    1.000
    Si5247   Si       0.91710    0.19939    0.86640    1.000
    N5248    N        0.92548    0.21982    0.82781    1.000
    Si5249   Si       0.90611    0.25856    0.82020    1.000
    N5250    N        0.92762    0.05678    0.87104    1.000
    N5251    N        0.89895    0.03969    0.98275    1.000
    Si5252   Si       0.89910    0.03405    0.89395    1.000
    N5253    N        0.88456    0.12824    0.91313    1.000
    N5254    N        0.87527    0.06417    0.91541    1.000
    N5255    N        0.91971    0.01167    0.92539    1.000
    Si5256   Si       0.86691    0.16801    0.91398    1.000
    Si5257   Si       0.91504    0.13240    0.94588    1.000
    N5258    N        0.87543    0.19044    0.87698    1.000
    N5259    N        0.90199    0.18280    0.93859    1.000
    Si5260   Si       0.87862    0.18094    0.97421    1.000
    N5261    N        0.89824    0.14132    0.98354    1.000
    N5262    N        0.91035    0.32075    0.04496    1.000
    Si5263   Si       0.91328    0.30433    0.08619    1.000
    Si5264   Si       0.88512    0.31686    0.00806    1.000
    N5265    N        0.91528    0.33964    0.11304    1.000
    N5266    N        0.87365    0.29027    0.09679    1.000
    N5267    N        0.90684    0.27281    0.99627    1.000
    Si5268   Si       0.89468    0.48942    0.04878    1.000
    N5269    N        0.90627    0.46097    0.08124    1.000
    Si5270   Si       0.89949    0.41904    0.08788    1.000
    N5271    N        0.87721    0.47096    0.01493    1.000
    Si5272   Si       0.87098    0.26778    0.13248    1.000
    Si5273   Si       0.89494    0.34006    0.14955    1.000
    N5274    N        0.89394    0.29589    0.16310    1.000
    N5275    N        0.92311    0.36220    0.17438    1.000
    N5276    N        0.92378    0.38113    0.24201    1.000
    N5277    N        0.93054    0.31022    0.21947    1.000
    Si5278   Si       0.88082    0.39256    0.22730    1.000
    N5279    N        0.87389    0.47993    0.15782    1.000
    N5280    N        0.88382    0.41438    0.12904    1.000
    Si5281   Si       0.89727    0.44351    0.15980    1.000
    N5282    N        0.89980    0.42089    0.19656    1.000
    N5283    N        0.90486    0.48205    0.23924    1.000
    N5284    N        0.88617    0.32253    0.34064    1.000
    Si5285   Si       0.88878    0.34171    0.30168    1.000
    Si5286   Si       0.87756    0.27948    0.34332    1.000
    N5287    N        0.92464    0.32527    0.28457    1.000
    Si5288   Si       0.87374    0.25942    0.25380    1.000
    N5289    N        0.89968    0.38542    0.30907    1.000
    Si5290   Si       0.89645    0.40923    0.34614    1.000
    Si5291   Si       0.91757    0.40483    0.27639    1.000
    N5292    N        0.87406    0.42060    0.26136    1.000
    N5293    N        0.92679    0.43995    0.34663    1.000
    N5294    N        0.91901    0.50230    0.30673    1.000
    Si5295   Si       0.90355    0.33831    0.37733    1.000
    N5296    N        0.87604    0.32822    0.40937    1.000
    Si5297   Si       0.88579    0.28701    0.42070    1.000
    N5298    N        0.92256    0.28970    0.44294    1.000
    N5299    N        0.88029    0.26541    0.38372    1.000
    Si5300   Si       0.90045    0.43639    0.47019    1.000
    N5301    N        0.89248    0.41693    0.43133    1.000
    Si5302   Si       0.92640    0.39677    0.41272    1.000
    N5303    N        0.90720    0.38207    0.37698    1.000
    Si5304   Si       0.91692    0.31721    0.52174    1.000
    N5305    N        0.91268    0.32478    0.56607    1.000
    Si5306   Si       0.88168    0.28159    0.58278    1.000
    N5307    N        0.87886    0.32665    0.50355    1.000
    Si5308   Si       0.87719    0.34619    0.57557    1.000
    Si5309   Si       0.90136    0.40570    0.54241    1.000
    N5310    N        0.89037    0.44592    0.55515    1.000
    N5311    N        0.92021    0.50055    0.58776    1.000
    Si5312   Si       0.88531    0.50133    0.50116    1.000
    N5313    N        0.92493    0.49206    0.51733    1.000
    Si5314   Si       0.92512    0.47074    0.55376    1.000
    N5315    N        0.91043    0.40611    0.50008    1.000
    N5316    N        0.86727    0.50459    0.54132    1.000
    N5317    N        0.88869    0.29287    0.62247    1.000
    Si5318   Si       0.90938    0.26368    0.64658    1.000
    N5319    N        0.89337    0.26181    0.68748    1.000
    Si5320   Si       0.89457    0.30313    0.69896    1.000
    N5321    N        0.88844    0.30871    0.74117    1.000
    N5322    N        0.93192    0.31432    0.68460    1.000
    N5323    N        0.90052    0.39694    0.65808    1.000
    N5324    N        0.90950    0.48028    0.65613    1.000
    N5325    N        0.89212    0.48895    0.72564    1.000
    Si5326   Si       0.92252    0.47853    0.69640    1.000
    N5327    N        0.89629    0.38308    0.73676    1.000
    Si5328   Si       0.89620    0.40935    0.69980    1.000
    Si5329   Si       0.90676    0.28368    0.76762    1.000
    N5330    N        0.89259    0.27408    0.85961    1.000
    N5331    N        0.88488    0.35918    0.79466    1.000
    Si5332   Si       0.87645    0.34866    0.75102    1.000
    N5333    N        0.87727    0.25863    0.78761    1.000
    N5334    N        0.92445    0.44975    0.85599    1.000
    N5335    N        0.89825    0.47796    0.79652    1.000
    Si5336   Si       0.89712    0.39974    0.77671    1.000
    Si5337   Si       0.88634    0.46352    0.87074    1.000
    Si5338   Si       0.87062    0.36910    0.89463    1.000
    N5339    N        0.87803    0.32677    0.89075    1.000
    N5340    N        0.91865    0.27504    0.92296    1.000
    N5341    N        0.89073    0.32483    0.96522    1.000
    Si5342   Si       0.91211    0.30026    0.88738    1.000
    Si5343   Si       0.89308    0.28252    0.95596    1.000
    Si5344   Si       0.87889    0.36807    0.96792    1.000
    N5345    N        0.90832    0.38594    0.90037    1.000
    Si5346   Si       0.90693    0.44351    0.99657    1.000
    N5347    N        0.92415    0.47329    0.96897    1.000
    N5348    N        0.89946    0.40835    0.96947    1.000
    Si5349   Si       0.90879    0.42010    0.92855    1.000
    N5350    N        0.88071    0.45003    0.91117    1.000
    N5351    N        0.89529    0.57725    0.08511    1.000
    N5352    N        0.90087    0.60872    0.02062    1.000
    Si5353   Si       0.91949    0.60156    0.05828    1.000
    Si5354   Si       0.90017    0.67960    0.07213    1.000
    N5355    N        0.88479    0.69402    0.10965    1.000
    Si5356   Si       0.88899    0.65100    0.01387    1.000
    N5357    N        0.91749    0.68310    0.00302    1.000
    N5358    N        0.92366    0.64006    0.07688    1.000
    N5359    N        0.87942    0.54981    0.22620    1.000
    Si5360   Si       0.90163    0.58881    0.12623    1.000
    N5361    N        0.89127    0.55915    0.15664    1.000
    Si5362   Si       0.91319    0.52358    0.22858    1.000
    N5363    N        0.88072    0.62394    0.13200    1.000
    Si5364   Si       0.89778    0.51607    0.15303    1.000
    N5365    N        0.92522    0.51266    0.18815    1.000
    N5366    N        0.92377    0.71547    0.17764    1.000
    Si5367   Si       0.91867    0.70508    0.22033    1.000
    Si5368   Si       0.89072    0.66534    0.14035    1.000
    N5369    N        0.87691    0.70420    0.22601    1.000
    Si5370   Si       0.90065    0.74291    0.15137    1.000
    N5371    N        0.90158    0.60481    0.25986    1.000
    N5372    N        0.92504    0.62435    0.37003    1.000
    Si5373   Si       0.87623    0.51040    0.30790    1.000
    Si5374   Si       0.86810    0.57559    0.26119    1.000
    N5375    N        0.87346    0.67341    0.34827    1.000
    Si5376   Si       0.89641    0.63686    0.34021    1.000
    Si5377   Si       0.90878    0.64720    0.27183    1.000
    N5378    N        0.89967    0.72052    0.29485    1.000
    Si5379   Si       0.88467    0.71375    0.33613    1.000
    N5380    N        0.91393    0.72977    0.36352    1.000
    N5381    N        0.92663    0.64684    0.31148    1.000
    Si5382   Si       0.91196    0.62380    0.41033    1.000
    N5383    N        0.89920    0.58738    0.43020    1.000
    N5384    N        0.88985    0.53575    0.47566    1.000
    N5385    N        0.90094    0.51955    0.40299    1.000
    Si5386   Si       0.92002    0.56104    0.45596    1.000
    N5387    N        0.92839    0.58663    0.49080    1.000
    N5388    N        0.90127    0.64998    0.47862    1.000
    Si5389   Si       0.87731    0.68697    0.47609    1.000
    Si5390   Si       0.88499    0.74588    0.44037    1.000
    N5391    N        0.90878    0.71188    0.45410    1.000
    Si5392   Si       0.88925    0.52664    0.57258    1.000
    Si5393   Si       0.90105    0.60189    0.57881    1.000
    N5394    N        0.91415    0.56198    0.57282    1.000
    N5395    N        0.89409    0.62844    0.54425    1.000
    Si5396   Si       0.89872    0.61399    0.50282    1.000
    N5397    N        0.92384    0.62004    0.61325    1.000
    Si5398   Si       0.91545    0.72919    0.57452    1.000
    Si5399   Si       0.88640    0.67217    0.54771    1.000
    N5400    N        0.92408    0.69057    0.55630    1.000
    N5401    N        0.89980    0.71657    0.61586    1.000
    N5402    N        0.89048    0.75270    0.54597    1.000
    N5403    N        0.91372    0.62161    0.68565    1.000
    Si5404   Si       0.88562    0.59032    0.70288    1.000
    N5405    N        0.90650    0.56765    0.73219    1.000
    Si5406   Si       0.89159    0.61507    0.64197    1.000
    N5407    N        0.87367    0.57972    0.66222    1.000
    N5408    N        0.87156    0.73797    0.71346    1.000
    N5409    N        0.87521    0.65533    0.64747    1.000
    N5410    N        0.92538    0.69354    0.68242    1.000
    Si5411   Si       0.87315    0.70393    0.74024    1.000
    Si5412   Si       0.89619    0.66183    0.68704    1.000
    N5413    N        0.90687    0.59628    0.79261    1.000
    N5414    N        0.88730    0.60911    0.85901    1.000
    Si5415   Si       0.87911    0.61661    0.81790    1.000
    Si5416   Si       0.87752    0.57695    0.76517    1.000
    Si5417   Si       0.89933    0.50760    0.76327    1.000
    N5418    N        0.87846    0.50634    0.87075    1.000
    Si5419   Si       0.92961    0.60293    0.86969    1.000
    N5420    N        0.88919    0.65862    0.80394    1.000
    Si5421   Si       0.90703    0.74306    0.81124    1.000
    N5422    N        0.87509    0.71847    0.83043    1.000
    Si5423   Si       0.92393    0.67677    0.78374    1.000
    N5424    N        0.91381    0.69598    0.74760    1.000
    Si5425   Si       0.89947    0.53522    0.89483    1.000
    N5426    N        0.91406    0.61321    0.95657    1.000
    Si5427   Si       0.89896    0.58337    0.98553    1.000
    N5428    N        0.91818    0.54378    0.98799    1.000
    Si5429   Si       0.90998    0.51224    0.95910    1.000
    N5430    N        0.93074    0.56112    0.88053    1.000
    Si5431   Si       0.91408    0.70418    0.96305    1.000
    N5432    N        0.89110    0.68238    0.92999    1.000
    Si5433   Si       0.88743    0.70588    0.89123    1.000
    Si5434   Si       0.88525    0.64124    0.94226    1.000
    N5435    N        0.87836    0.74930    0.88897    1.000
    N5436    N        0.89545    0.74231    0.96702    1.000
    Si5437   Si       0.89680    0.80667    0.02056    1.000
    Si5438   Si       0.90401    0.79615    0.09445    1.000
    N5439    N        0.92195    0.79767    0.05447    1.000
    N5440    N        0.87741    0.84613    0.02377    1.000
    Si5441   Si       0.90525    0.87502    0.00797    1.000
    N5442    N        0.91088    0.83302    0.11649    1.000
    N5443    N        0.91661    0.75772    0.11094    1.000
    N5444    N        0.88668    0.92616    0.10411    1.000
    N5445    N        0.90073    0.91303    0.02906    1.000
    N5446    N        0.88404    0.96794    0.05414    1.000
    Si5447   Si       0.88879    0.95176    0.01393    1.000
    Si5448   Si       0.91654    0.92966    0.06824    1.000
    N5449    N        0.89341    0.84224    0.19219    1.000
    Si5450   Si       0.88987    0.85708    0.15182    1.000
    N5451    N        0.90524    0.77751    0.17603    1.000
    Si5452   Si       0.92213    0.84668    0.22280    1.000
    N5453    N        0.91974    0.88946    0.14606    1.000
    Si5454   Si       0.91042    0.93063    0.13998    1.000
    N5455    N        0.92284    0.99346    0.19580    1.000
    N5456    N        0.88521    0.94768    0.17426    1.000
    Si5457   Si       0.90899    0.95547    0.21280    1.000
    N5458    N        0.88554    0.91975    0.22944    1.000
    N5459    N        0.90545    0.85990    0.26010    1.000
    N5460    N        0.91734    0.84860    0.33180    1.000
    N5461    N        0.88818    0.80014    0.35701    1.000
    Si5462   Si       0.92480    0.80316    0.33458    1.000
    Si5463   Si       0.89293    0.84364    0.36708    1.000
    Si5464   Si       0.93098    0.86786    0.29564    1.000
    Si5465   Si       0.89406    0.93257    0.32700    1.000
    N5466    N        0.90018    0.97364    0.31520    1.000
    N5467    N        0.90831    0.98111    0.25264    1.000
    N5468    N        0.91760    0.91213    0.29119    1.000
    Si5469   Si       0.87727    0.99242    0.28311    1.000
    Si5470   Si       0.88165    0.89662    0.26360    1.000
    N5471    N        0.91706    0.77386    0.42719    1.000
    Si5472   Si       0.91031    0.81534    0.43261    1.000
    N5473    N        0.91630    0.84442    0.40210    1.000
    Si5474   Si       0.92490    0.87131    0.48359    1.000
    N5475    N        0.92749    0.83062    0.47113    1.000
    N5476    N        0.90165    0.92739    0.36913    1.000
    Si5477   Si       0.87363    0.91627    0.47610    1.000
    Si5478   Si       0.90135    0.99459    0.42704    1.000
    N5479    N        0.90865    0.94032    0.49015    1.000
    N5480    N        0.88853    0.00140    0.46917    1.000
    N5481    N        0.92732    0.89674    0.44680    1.000
    N5482    N        0.93227    0.96336    0.42357    1.000
    N5483    N        0.90686    0.78700    0.59682    1.000
    Si5484   Si       0.89209    0.79966    0.55411    1.000
    N5485    N        0.88264    0.84347    0.56438    1.000
    Si5486   Si       0.90297    0.87985    0.57807    1.000
    N5487    N        0.88264    0.87870    0.49728    1.000
    N5488    N        0.87577    0.88482    0.61008    1.000
    Si5489   Si       0.91546    0.94364    0.59893    1.000
    N5490    N        0.91192    0.91955    0.56067    1.000
    N5491    N        0.88952    0.99339    0.53793    1.000
    N5492    N        0.87782    0.95088    0.61442    1.000
    Si5493   Si       0.88344    0.97457    0.50150    1.000
    Si5494   Si       0.93067    0.99578    0.54985    1.000
    N5495    N        0.88552    0.79733    0.69541    1.000
    Si5496   Si       0.90197    0.77526    0.73111    1.000
    N5497    N        0.90449    0.85943    0.69069    1.000
    Si5498   Si       0.87385    0.83409    0.67448    1.000
    N5499    N        0.87956    0.98122    0.71761    1.000
    N5500    N        0.91940    0.92691    0.72841    1.000
    Si5501   Si       0.90651    0.95506    0.69533    1.000
    Si5502   Si       0.88888    0.89509    0.70860    1.000
    N5503    N        0.89241    0.92332    0.67119    1.000
    Si5504   Si       0.88834    0.83852    0.76704    1.000
    N5505    N        0.88455    0.83702    0.81019    1.000
    Si5506   Si       0.92153    0.84236    0.83709    1.000
    N5507    N        0.89118    0.76248    0.77558    1.000
    N5508    N        0.92311    0.81586    0.74741    1.000
    N5509    N        0.88783    0.87951    0.75111    1.000
    N5510    N        0.92206    0.88508    0.85052    1.000
    N5511    N        0.91613    0.98290    0.77924    1.000
    N5512    N        0.89926    0.95884    0.84993    1.000
    Si5513   Si       0.89705    0.91831    0.76435    1.000
    Si5514   Si       0.89165    0.91644    0.85889    1.000
    Si5515   Si       0.87663    0.98293    0.76126    1.000
    N5516    N        0.92412    0.92160    0.79770    1.000
    Si5517   Si       0.92717    0.96109    0.81510    1.000
    N5518    N        0.89272    0.81666    0.86920    1.000
    N5519    N        0.87806    0.79950    0.93365    1.000
    Si5520   Si       0.88822    0.83267    0.90938    1.000
    Si5521   Si       0.91349    0.78208    0.95337    1.000
    Si5522   Si       0.91203    0.77789    0.88118    1.000
    N5523    N        0.92357    0.85707    0.91789    1.000
    N5524    N        0.92373    0.80957    0.98439    1.000
    N5525    N        0.88425    0.88453    0.97094    1.000
    N5526    N        0.88502    0.91492    0.90396    1.000
    Si5527   Si       0.90669    0.89376    0.93272    1.000
    N5528    N        0.91498    0.96816    0.98397    1.000
    Si5529   Si       0.89930    0.99992    0.96084    1.000
    N5530    N        0.95381    0.11103    0.07705    1.000
    N5531    N        0.96390    0.07336    0.01437    1.000
    Si5532   Si       0.94098    0.07827    0.05137    1.000
    N5533    N        0.94056    0.04298    0.07430    1.000
    Si5534   Si       0.93876    0.05811    0.11728    1.000
    Si5535   Si       0.93993    0.12442    0.11579    1.000
    Si5536   Si       0.97857    0.13533    0.05222    1.000
    Si5537   Si       0.95596    0.19148    0.04903    1.000
    N5538    N        0.95956    0.22811    0.02806    1.000
    N5539    N        0.94650    0.15334    0.02690    1.000
    N5540    N        0.93264    0.12534    0.20011    1.000
    Si5541   Si       0.94287    0.08755    0.22091    1.000
    N5542    N        0.96640    0.06265    0.19489    1.000
    N5543    N        0.97174    0.12205    0.14683    1.000
    N5544    N        0.97990    0.05782    0.12943    1.000
    Si5545   Si       0.98648    0.08454    0.16425    1.000
    Si5546   Si       0.98914    0.02867    0.20773    1.000
    N5547    N        0.96129    0.21973    0.12667    1.000
    Si5548   Si       0.95024    0.15325    0.17108    1.000
    N5549    N        0.97650    0.18520    0.18450    1.000
    N5550    N        0.94238    0.24801    0.18670    1.000
    Si5551   Si       0.97199    0.22559    0.16848    1.000
    N5552    N        0.96178    0.09339    0.33005    1.000
    N5553    N        0.96389    0.02176    0.31465    1.000
    Si5554   Si       0.97735    0.05364    0.34152    1.000
    N5555    N        0.96968    0.09881    0.25244    1.000
    Si5556   Si       0.93879    0.11995    0.35448    1.000
    N5557    N        0.96823    0.01655    0.24571    1.000
    Si5558   Si       0.97563    0.13915    0.26212    1.000
    N5559    N        0.94491    0.20350    0.30507    1.000
    Si5560   Si       0.93504    0.24252    0.29203    1.000
    N5561    N        0.93712    0.15906    0.25648    1.000
    N5562    N        0.98538    0.14913    0.30305    1.000
    N5563    N        0.96876    0.04741    0.38309    1.000
    N5564    N        0.96265    0.11724    0.44269    1.000
    Si5565   Si       0.95622    0.08553    0.47024    1.000
    Si5566   Si       0.93431    0.13162    0.41486    1.000
    N5567    N        0.96560    0.17762    0.47042    1.000
    N5568    N        0.97484    0.24533    0.47730    1.000
    N5569    N        0.95787    0.14810    0.38264    1.000
    N5570    N        0.96871    0.10272    0.50801    1.000
    N5571    N        0.97114    0.08101    0.58074    1.000
    Si5572   Si       0.95803    0.10986    0.55012    1.000
    N5573    N        0.94159    0.03602    0.53946    1.000
    Si5574   Si       0.98198    0.04832    0.55310    1.000
    Si5575   Si       0.95173    0.07082    0.61741    1.000
    N5576    N        0.95833    0.15148    0.56143    1.000
    N5577    N        0.94242    0.21117    0.52867    1.000
    N5578    N        0.95682    0.21060    0.60696    1.000
    Si5579   Si       0.97549    0.20613    0.50089    1.000
    Si5580   Si       0.94116    0.25270    0.54405    1.000
    Si5581   Si       0.97803    0.25350    0.61037    1.000
    Si5582   Si       0.94802    0.05226    0.73261    1.000
    N5583    N        0.96007    0.09778    0.64969    1.000
    N5584    N        0.96136    0.03006    0.62844    1.000
    N5585    N        0.96201    0.03241    0.69833    1.000
    N5586    N        0.95301    0.09374    0.72400    1.000
    Si5587   Si       0.93741    0.01596    0.66540    1.000
    Si5588   Si       0.93432    0.10527    0.68378    1.000
    N5589    N        0.95474    0.21521    0.69532    1.000
    Si5590   Si       0.97803    0.24436    0.67372    1.000
    N5591    N        0.98603    0.15818    0.73196    1.000
    Si5592   Si       0.96474    0.17235    0.69675    1.000
    N5593    N        0.98670    0.16177    0.65924    1.000
    Si5594   Si       0.98868    0.18970    0.62669    1.000
    N5595    N        0.96906    0.04308    0.77265    1.000
    N5596    N        0.94595    0.10154    0.81746    1.000
    Si5597   Si       0.94149    0.01564    0.79264    1.000
    Si5598   Si       0.97913    0.07935    0.79778    1.000
    N5599    N        0.96079    0.16642    0.79745    1.000
    Si5600   Si       0.94668    0.20769    0.79066    1.000
    N5601    N        0.93379    0.15773    0.86113    1.000
    Si5602   Si       0.93341    0.14289    0.82006    1.000
    Si5603   Si       0.97081    0.06032    0.87619    1.000
    N5604    N        0.97011    0.03416    0.96560    1.000
    Si5605   Si       0.97380    0.10994    0.93772    1.000
    Si5606   Si       0.93899    0.05897    0.98255    1.000
    N5607    N        0.93627    0.09394    0.95607    1.000
    N5608    N        0.98212    0.01873    0.89090    1.000
    N5609    N        0.97506    0.09753    0.89779    1.000
    Si5610   Si       0.96213    0.01214    0.92913    1.000
    N5611    N        0.94439    0.21405    0.89656    1.000
    Si5612   Si       0.95339    0.25019    0.92258    1.000
    Si5613   Si       0.96358    0.13870    0.88411    1.000
    N5614    N        0.94972    0.22590    0.95861    1.000
    Si5615   Si       0.94272    0.19021    0.93141    1.000
    Si5616   Si       0.93137    0.23504    0.99618    1.000
    N5617    N        0.95496    0.14848    0.92673    1.000
    N5618    N        0.95823    0.36241    0.01346    1.000
    Si5619   Si       0.94896    0.36465    0.10455    1.000
    N5620    N        0.97127    0.33929    0.07922    1.000
    Si5621   Si       0.95222    0.33014    0.04086    1.000
    N5622    N        0.97475    0.29465    0.03026    1.000
    N5623    N        0.93587    0.26728    0.08477    1.000
    Si5624   Si       0.96579    0.26112    0.05532    1.000
    Si5625   Si       0.96198    0.46999    0.04376    1.000
    Si5626   Si       0.95704    0.39907    0.03617    1.000
    N5627    N        0.97406    0.46788    0.08551    1.000
    Si5628   Si       0.93881    0.47690    0.10814    1.000
    N5629    N        0.93810    0.43655    0.02453    1.000
    N5630    N        0.93598    0.39707    0.07733    1.000
    N5631    N        0.93419    0.50504    0.04042    1.000
    N5632    N        0.97630    0.36983    0.13684    1.000
    Si5633   Si       0.96426    0.34947    0.17112    1.000
    N5634    N        0.97078    0.30761    0.16769    1.000
    N5635    N        0.97781    0.37438    0.20366    1.000
    Si5636   Si       0.93461    0.28950    0.18332    1.000
    Si5637   Si       0.97451    0.45242    0.16635    1.000
    Si5638   Si       0.94432    0.46406    0.23751    1.000
    Si5639   Si       0.93998    0.39721    0.20448    1.000
    N5640    N        0.95910    0.43746    0.20453    1.000
    N5641    N        0.98276    0.48716    0.24477    1.000
    N5642    N        0.93683    0.45279    0.14407    1.000
    Si5643   Si       0.96369    0.31383    0.29772    1.000
    N5644    N        0.96802    0.27047    0.29421    1.000
    N5645    N        0.98020    0.33479    0.26162    1.000
    Si5646   Si       0.93963    0.34028    0.24805    1.000
    N5647    N        0.98633    0.32962    0.32978    1.000
    N5648    N        0.97222    0.47946    0.33314    1.000
    N5649    N        0.94046    0.44054    0.27597    1.000
    Si5650   Si       0.93477    0.46315    0.31171    1.000
    Si5651   Si       0.96314    0.45507    0.36916    1.000
    Si5652   Si       0.98074    0.33442    0.37296    1.000
    N5653    N        0.94399    0.32803    0.39163    1.000
    Si5654   Si       0.94819    0.32591    0.43575    1.000
    N5655    N        0.93416    0.36711    0.44513    1.000
    N5656    N        0.98967    0.32933    0.45460    1.000
    Si5657   Si       0.93287    0.25925    0.47387    1.000
    Si5658   Si       0.94345    0.38250    0.48670    1.000
    N5659    N        0.93243    0.46031    0.45790    1.000
    N5660    N        0.97802    0.40725    0.48928    1.000
    Si5661   Si       0.96568    0.46225    0.43138    1.000
    N5662    N        0.96013    0.48881    0.39872    1.000
    N5663    N        0.96144    0.42375    0.40483    1.000
    Si5664   Si       0.94755    0.34926    0.57546    1.000
    N5665    N        0.94800    0.34388    0.50755    1.000
    N5666    N        0.97886    0.25897    0.56704    1.000
    N5667    N        0.93006    0.27870    0.51245    1.000
    N5668    N        0.98768    0.33388    0.56529    1.000
    Si5669   Si       0.98922    0.33189    0.49990    1.000
    N5670    N        0.95230    0.34927    0.61871    1.000
    Si5671   Si       0.96497    0.41331    0.58092    1.000
    N5672    N        0.96126    0.45207    0.56409    1.000
    N5673    N        0.93609    0.38811    0.56161    1.000
    Si5674   Si       0.98964    0.48242    0.58186    1.000
    N5675    N        0.97624    0.32712    0.73102    1.000
    Si5676   Si       0.96758    0.33535    0.68991    1.000
    Si5677   Si       0.97296    0.28103    0.73684    1.000
    N5678    N        0.93550    0.26197    0.74314    1.000
    N5679    N        0.95223    0.26179    0.64571    1.000
    N5680    N        0.95804    0.37664    0.68221    1.000
    Si5681   Si       0.93827    0.38230    0.64459    1.000
    N5682    N        0.97658    0.47582    0.62419    1.000
    N5683    N        0.98094    0.39554    0.74523    1.000
    Si5684   Si       0.93641    0.49454    0.62711    1.000
    N5685    N        0.92991    0.43613    0.70673    1.000
    Si5686   Si       0.96593    0.41095    0.70630    1.000
    N5687    N        0.96245    0.41348    0.62408    1.000
    N5688    N        0.95992    0.49954    0.69268    1.000
    Si5689   Si       0.97072    0.30608    0.80317    1.000
    N5690    N        0.97881    0.34839    0.79675    1.000
    N5691    N        0.93124    0.28896    0.80423    1.000
    Si5692   Si       0.98988    0.37778    0.82746    1.000
    N5693    N        0.96642    0.47790    0.81279    1.000
    Si5694   Si       0.97597    0.49718    0.77558    1.000
    Si5695   Si       0.97540    0.42858    0.77263    1.000
    N5696    N        0.93349    0.42091    0.78886    1.000
    N5697    N        0.96623    0.38934    0.86196    1.000
    Si5698   Si       0.92966    0.45500    0.81533    1.000
    Si5699   Si       0.94855    0.36668    0.89652    1.000
    N5700    N        0.94701    0.32539    0.88596    1.000
    Si5701   Si       0.98201    0.36019    0.97665    1.000
    N5702    N        0.96615    0.37120    0.93597    1.000
    Si5703   Si       0.98698    0.30607    0.88109    1.000
    N5704    N        0.98580    0.26878    0.90199    1.000
    Si5705   Si       0.95826    0.42850    0.87607    1.000
    N5706    N        0.95003    0.43396    0.91926    1.000
    Si5707   Si       0.95741    0.47405    0.94000    1.000
    N5708    N        0.95435    0.57393    0.04839    1.000
    Si5709   Si       0.94824    0.54023    0.01910    1.000
    N5710    N        0.98452    0.53951    0.99534    1.000
    Si5711   Si       0.95061    0.63831    0.11004    1.000
    Si5712   Si       0.95017    0.73751    0.09273    1.000
    Si5713   Si       0.95239    0.69649    0.02478    1.000
    N5714    N        0.96881    0.73054    0.00202    1.000
    N5715    N        0.93701    0.70426    0.06445    1.000
    N5716    N        0.98359    0.66548    0.02503    1.000
    N5717    N        0.97824    0.75968    0.06601    1.000
    N5718    N        0.94430    0.59731    0.12400    1.000
    Si5719   Si       0.98084    0.58705    0.14099    1.000
    N5720    N        0.97437    0.55818    0.17190    1.000
    Si5721   Si       0.95832    0.52076    0.16048    1.000
    N5722    N        0.96713    0.61124    0.22551    1.000
    N5723    N        0.93306    0.51505    0.12614    1.000
    N5724    N        0.97351    0.72633    0.12881    1.000
    Si5725   Si       0.95755    0.69476    0.15830    1.000
    N5726    N        0.93205    0.74455    0.23808    1.000
    N5727    N        0.98045    0.67375    0.18906    1.000
    N5728    N        0.93085    0.66957    0.24334    1.000
    Si5729   Si       0.97028    0.65647    0.22790    1.000
    N5730    N        0.93364    0.66269    0.14136    1.000
    N5731    N        0.95298    0.54625    0.35973    1.000
    Si5732   Si       0.95635    0.52126    0.32488    1.000
    Si5733   Si       0.98296    0.52877    0.25417    1.000
    N5734    N        0.98748    0.60683    0.32835    1.000
    N5735    N        0.94524    0.54719    0.24649    1.000
    N5736    N        0.98884    0.53151    0.29804    1.000
    Si5737   Si       0.93661    0.58861    0.24434    1.000
    Si5738   Si       0.95758    0.63719    0.34192    1.000
    Si5739   Si       0.93654    0.74203    0.28355    1.000
    N5740    N        0.96938    0.72090    0.29854    1.000
    N5741    N        0.95563    0.54485    0.43547    1.000
    Si5742   Si       0.94310    0.52756    0.39749    1.000
    Si5743   Si       0.93490    0.75704    0.38873    1.000
    N5744    N        0.96613    0.73584    0.41246    1.000
    N5745    N        0.96922    0.69649    0.47038    1.000
    Si5746   Si       0.94252    0.66312    0.47025    1.000
    N5747    N        0.94677    0.63934    0.43160    1.000
    Si5748   Si       0.98207    0.63575    0.40823    1.000
    N5749    N        0.97903    0.66093    0.37152    1.000
    Si5750   Si       0.94949    0.73217    0.45287    1.000
    Si5751   Si       0.95458    0.54565    0.59121    1.000
    Si5752   Si       0.96726    0.60111    0.50164    1.000
    N5753    N        0.98455    0.52174    0.56867    1.000
    N5754    N        0.98313    0.58134    0.60093    1.000
    N5755    N        0.97695    0.63985    0.57434    1.000
    N5756    N        0.95988    0.64585    0.50720    1.000
    N5757    N        0.95667    0.74436    0.58060    1.000
    Si5758   Si       0.96020    0.66770    0.54568    1.000
    Si5759   Si       0.96405    0.63698    0.61647    1.000
    N5760    N        0.98935    0.69800    0.53856    1.000
    Si5761   Si       0.95433    0.61131    0.68809    1.000
    N5762    N        0.96263    0.57029    0.70032    1.000
    N5763    N        0.94936    0.53649    0.63339    1.000
    Si5764   Si       0.96935    0.53681    0.67166    1.000
    Si5765   Si       0.94763    0.55864    0.73939    1.000
    N5766    N        0.98178    0.61810    0.65285    1.000
    Si5767   Si       0.93429    0.70783    0.64189    1.000
    N5768    N        0.94773    0.75071    0.65049    1.000
    N5769    N        0.97824    0.63805    0.71187    1.000
    N5770    N        0.93677    0.75594    0.71634    1.000
    N5771    N        0.96077    0.68038    0.62556    1.000
    Si5772   Si       0.94119    0.71060    0.71870    1.000
    N5773    N        0.97967    0.69854    0.73532    1.000
    Si5774   Si       0.95003    0.60669    0.79377    1.000
    N5775    N        0.95898    0.60788    0.83695    1.000
    N5776    N        0.97388    0.57876    0.76913    1.000
    N5777    N        0.94247    0.51912    0.76345    1.000
    N5778    N        0.98571    0.52820    0.86755    1.000
    N5779    N        0.95743    0.64749    0.77821    1.000
    Si5780   Si       0.95210    0.71915    0.84594    1.000
    N5781    N        0.93422    0.70935    0.80809    1.000
    Si5782   Si       0.98798    0.65817    0.74923    1.000
    N5783    N        0.96815    0.57007    0.93431    1.000
    Si5784   Si       0.96033    0.53885    0.90277    1.000
    Si5785   Si       0.95352    0.60944    0.93927    1.000
    N5786    N        0.92846    0.51248    0.92009    1.000
    N5787    N        0.98759    0.63374    0.95253    1.000
    N5788    N        0.94206    0.63002    0.90246    1.000
    Si5789   Si       0.95217    0.67292    0.90664    1.000
    N5790    N        0.95153    0.69855    0.94353    1.000
    Si5791   Si       0.98462    0.71846    0.96309    1.000
    N5792    N        0.93012    0.69791    0.87735    1.000
    N5793    N        0.97120    0.83809    0.08044    1.000
    N5794    N        0.94168    0.85824    0.02220    1.000
    Si5795   Si       0.96598    0.87222    0.05295    1.000
    Si5796   Si       0.96679    0.80133    0.05729    1.000
    N5797    N        0.98179    0.79999    0.01451    1.000
    Si5798   Si       0.94315    0.86316    0.11606    1.000
    N5799    N        0.94260    0.89445    0.08157    1.000
    N5800    N        0.94873    0.96029    0.06596    1.000
    Si5801   Si       0.97508    0.95693    0.10262    1.000
    Si5802   Si       0.97995    0.95864    0.03202    1.000
    N5803    N        0.97660    0.92890    0.00042    1.000
    N5804    N        0.97507    0.00166    0.02622    1.000
    Si5805   Si       0.95853    0.00588    0.06610    1.000
    N5806    N        0.98919    0.99856    0.09881    1.000
    N5807    N        0.94061    0.80890    0.22944    1.000
    N5808    N        0.97946    0.77633    0.18489    1.000
    Si5809   Si       0.93978    0.77350    0.20425    1.000
    N5810    N        0.97693    0.85397    0.14088    1.000
    N5811    N        0.95603    0.87168    0.21493    1.000
    Si5812   Si       0.98238    0.86399    0.18174    1.000
    Si5813   Si       0.94276    0.99433    0.15784    1.000
    Si5814   Si       0.97703    0.90821    0.22357    1.000
    N5815    N        0.94693    0.93679    0.22885    1.000
    N5816    N        0.98169    0.00476    0.17172    1.000
    N5817    N        0.94456    0.95595    0.13574    1.000
    N5818    N        0.96859    0.84779    0.28580    1.000
    Si5819   Si       0.96166    0.80827    0.26818    1.000
    N5820    N        0.93883    0.78295    0.29600    1.000
    N5821    N        0.95209    0.78583    0.36235    1.000
    N5822    N        0.95659    0.96324    0.35330    1.000
    N5823    N        0.96863    0.96342    0.28968    1.000
    Si5824   Si       0.93372    0.99575    0.33350    1.000
    Si5825   Si       0.93314    0.94820    0.27025    1.000
    Si5826   Si       0.98685    0.00323    0.28213    1.000
    N5827    N        0.98701    0.90472    0.32242    1.000
    N5828    N        0.97841    0.85785    0.43756    1.000
    Si5829   Si       0.94626    0.87451    0.41656    1.000
    N5830    N        0.96067    0.76240    0.48226    1.000
    Si5831   Si       0.93891    0.93769    0.45644    1.000
    Si5832   Si       0.94096    0.94036    0.38692    1.000
    N5833    N        0.96362    0.90320    0.38778    1.000
    N5834    N        0.98259    0.93939    0.46518    1.000
    Si5835   Si       0.95836    0.82548    0.57213    1.000
    N5836    N        0.94191    0.86326    0.58540    1.000
    N5837    N        0.96755    0.80606    0.60939    1.000
    Si5838   Si       0.94517    0.77071    0.61123    1.000
    N5839    N        0.93565    0.80791    0.53782    1.000
    Si5840   Si       0.94824    0.80422    0.49696    1.000
    Si5841   Si       0.96656    0.88743    0.60908    1.000
    N5842    N        0.95441    0.96459    0.53091    1.000
    N5843    N        0.95547    0.89550    0.50504    1.000
    Si5844   Si       0.97472    0.99455    0.60365    1.000
    N5845    N        0.93539    0.98148    0.58988    1.000
    Si5846   Si       0.93393    0.92810    0.52502    1.000
    Si5847   Si       0.96274    0.76942    0.68631    1.000
    N5848    N        0.96191    0.81175    0.67899    1.000
    N5849    N        0.96267    0.86695    0.72223    1.000
    Si5850   Si       0.93583    0.83566    0.70802    1.000
    Si5851   Si       0.98484    0.82460    0.64549    1.000
    N5852    N        0.98546    0.86645    0.64240    1.000
    Si5853   Si       0.95946    0.91129    0.72635    1.000
    N5854    N        0.93658    0.97347    0.67383    1.000
    N5855    N        0.97850    0.92090    0.68678    1.000
    Si5856   Si       0.96371    0.94468    0.65571    1.000
    N5857    N        0.94271    0.91978    0.62435    1.000
    Si5858   Si       0.95725    0.82036    0.77655    1.000
    N5859    N        0.94672    0.85399    0.80125    1.000
    Si5860   Si       0.97102    0.78567    0.84732    1.000
    N5861    N        0.95399    0.82424    0.86234    1.000
    N5862    N        0.97706    0.79420    0.80613    1.000
    N5863    N        0.93384    0.75961    0.84559    1.000
    Si5864   Si       0.95070    0.89380    0.81639    1.000
    N5865    N        0.96040    0.99018    0.82396    1.000
    Si5866   Si       0.98400    0.98704    0.86053    1.000
    N5867    N        0.99085    0.90440    0.82253    1.000
    N5868    N        0.98887    0.92217    0.75490    1.000
    N5869    N        0.93698    0.77749    0.91672    1.000
    Si5870   Si       0.96157    0.84618    0.89881    1.000
    Si5871   Si       0.98174    0.77921    0.91683    1.000
    Si5872   Si       0.96039    0.83143    0.99475    1.000
    N5873    N        0.98677    0.82211    0.92612    1.000
    Si5874   Si       0.95082    0.94795    0.96859    1.000
    N5875    N        0.97432    0.97138    0.94102    1.000
    N5876    N        0.94194    0.91535    0.94186    1.000
    N5877    N        0.97932    0.94680    0.87648    1.000
    N5878    N        0.98179    0.88541    0.89182    1.000
    Si5879   Si       0.97641    0.92388    0.91445    1.000
