# CIF file generated by openbabel 3.1.1, see https://openbabel.org
data_I
_chemical_name_common '3.01-87.aims'
_cell_length_a 39.9131
_cell_length_b 39.9131
_cell_length_c 39.9131
_cell_angle_alpha 90
_cell_angle_beta 90
_cell_angle_gamma 90
loop_
    _atom_site_label
    _atom_site_type_symbol
    _atom_site_fract_x
    _atom_site_fract_y
    _atom_site_fract_z
    _atom_site_occupancy
    N0       N        0.02774    0.04910    0.05744    1.000
    Si1      Si       0.03954    0.02032    0.02633    1.000
    N2       N        0.08081    0.03143    0.01818    1.000
    Si3      Si       0.00354    0.03304    0.08879    1.000
    Si4      Si       0.12234    0.03740    0.01629    1.000
    Si5      Si       0.18903    0.02934    0.03455    1.000
    N6       N        0.14867    0.01760    0.04191    1.000
    N7       N        0.14223    0.01553    0.10942    1.000
    N8       N        0.21447    0.00530    0.06244    1.000
    N9       N        0.20353    0.01970    0.99529    1.000
    N10      N        0.00132    0.05558    0.12578    1.000
    N11      N        0.03157    0.02358    0.17296    1.000
    N12      N        0.02515    0.05048    0.23840    1.000
    Si13     Si       0.01936    0.01449    0.21435    1.000
    N14      N        0.09509    0.05455    0.22601    1.000
    Si15     Si       0.02538    0.06529    0.16044    1.000
    Si16     Si       0.21853    0.06780    0.13570    1.000
    Si17     Si       0.14374    0.04812    0.13945    1.000
    Si18     Si       0.19905    0.04240    0.19497    1.000
    N19      N        0.12548    0.02359    0.17222    1.000
    Si20     Si       0.12551    0.02832    0.21486    1.000
    N21      N        0.18331    0.05897    0.15733    1.000
    N22      N        0.16476    0.04446    0.22316    1.000
    N23      N        0.23468    0.06586    0.19716    1.000
    N24      N        0.02136    0.03770    0.32513    1.000
    Si25     Si       0.06344    0.03695    0.31425    1.000
    N26      N        0.09540    0.03111    0.34388    1.000
    Si27     Si       0.13022    0.05421    0.33149    1.000
    N28      N        0.13994    0.03892    0.28955    1.000
    N29      N        0.21075    0.03769    0.26948    1.000
    N30      N        0.16880    0.04811    0.34973    1.000
    Si31     Si       0.17252    0.05684    0.26538    1.000
    Si32     Si       0.19192    0.01291    0.35296    1.000
    N33      N        0.23361    0.01150    0.35935    1.000
    N34      N        0.06589    0.05899    0.40104    1.000
    Si35     Si       0.00466    0.04798    0.46566    1.000
    N36      N        0.00707    0.02653    0.39555    1.000
    Si37     Si       0.08852    0.02371    0.38582    1.000
    N38      N        0.03664    0.02002    0.46005    1.000
    Si39     Si       0.06212    0.01638    0.49451    1.000
    Si40     Si       0.22119    0.03350    0.46715    1.000
    N41      N        0.12394    0.03866    0.40927    1.000
    N42      N        0.19370    0.05078    0.43519    1.000
    Si43     Si       0.16503    0.02297    0.42017    1.000
    Si44     Si       0.13899    0.01031    0.49003    1.000
    N45      N        0.05987    0.03667    0.61583    1.000
    Si46     Si       0.02133    0.05172    0.59256    1.000
    Si47     Si       0.08479    0.05034    0.58121    1.000
    N48      N        0.00637    0.06377    0.50706    1.000
    N49      N        0.07149    0.05715    0.50597    1.000
    N50      N        0.99157    0.02989    0.57087    1.000
    Si51     Si       0.17482    0.05753    0.53288    1.000
    N52      N        0.21341    0.04180    0.51387    1.000
    N53      N        0.17209    0.03510    0.57102    1.000
    Si54     Si       0.19939    0.02849    0.60374    1.000
    N55      N        0.14396    0.05161    0.50306    1.000
    N56      N        0.23078    0.00782    0.57702    1.000
    N57      N        0.03635    0.03298    0.68239    1.000
    Si58     Si       0.99859    0.03505    0.70658    1.000
    Si59     Si       0.04535    0.06035    0.65035    1.000
    N60      N        0.14238    0.03289    0.74283    1.000
    N61      N        0.22104    0.05918    0.62694    1.000
    Si62     Si       0.22591    0.06471    0.66991    1.000
    N63      N        0.18968    0.04816    0.68785    1.000
    N64      N        0.12508    0.04799    0.65501    1.000
    Si65     Si       0.15808    0.02528    0.66911    1.000
    Si66     Si       0.18161    0.04703    0.73177    1.000
    N67      N        0.17876    0.00886    0.63611    1.000
    Si68     Si       0.09789    0.03804    0.81396    1.000
    N69      N        0.06197    0.03303    0.83781    1.000
    N70      N        0.07893    0.03123    0.77273    1.000
    N71      N        0.01673    0.05340    0.79095    1.000
    Si72     Si       0.03607    0.01810    0.77289    1.000
    N73      N        0.99756    0.05313    0.85820    1.000
    Si74     Si       0.03082    0.06336    0.83157    1.000
    Si75     Si       0.10618    0.01082    0.74760    1.000
    N76      N        0.18582    0.05744    0.80609    1.000
    Si77     Si       0.17792    0.01883    0.82410    1.000
    N78      N        0.13240    0.01407    0.81818    1.000
    Si79     Si       0.06475    0.06528    0.99254    1.000
    Si80     Si       0.00035    0.02306    0.89386    1.000
    N81      N        0.03054    0.04719    0.91360    1.000
    Si82     Si       0.04149    0.02018    0.94584    1.000
    N83      N        0.02954    0.03777    0.98484    1.000
    Si84     Si       0.10752    0.03313    0.94400    1.000
    N85      N        0.13351    0.03596    0.90803    1.000
    Si86     Si       0.17839    0.02762    0.96140    1.000
    N87      N        0.18219    0.06551    0.94191    1.000
    N88      N        0.13781    0.02738    0.97590    1.000
    Si89     Si       0.03833    0.09210    0.05618    1.000
    N90      N        0.07726    0.09888    0.07506    1.000
    N91      N        0.04887    0.10145    0.01240    1.000
    Si92     Si       0.10559    0.11109    0.04655    1.000
    N93      N        0.00627    0.11882    0.06315    1.000
    Si94     Si       0.08963    0.10370    0.11712    1.000
    N95      N        0.12202    0.08161    0.01991    1.000
    Si96     Si       0.16029    0.10788    0.10477    1.000
    Si97     Si       0.22385    0.09060    0.06438    1.000
    N98      N        0.20385    0.09522    0.10301    1.000
    Si99     Si       0.16099    0.10235    0.02708    1.000
    N100     N        0.19327    0.07380    0.03716    1.000
    N101     N        0.14591    0.11716    0.06497    1.000
    Si102    Si       0.01004    0.09015    0.22599    1.000
    N103     N        0.00002    0.08925    0.18463    1.000
    N104     N        0.05992    0.08610    0.14363    1.000
    N105     N        0.04720    0.10890    0.23806    1.000
    N106     N        0.12960    0.08570    0.12299    1.000
    Si107    Si       0.08838    0.11031    0.30479    1.000
    N108     N        0.99636    0.09965    0.30348    1.000
    N109     N        0.06979    0.07490    0.29178    1.000
    Si110    Si       0.99942    0.07228    0.33546    1.000
    N111     N        0.01363    0.09330    0.36938    1.000
    N112     N        0.10953    0.12506    0.26836    1.000
    Si113    Si       0.06250    0.06996    0.24936    1.000
    N114     N        0.11611    0.09718    0.33666    1.000
    N115     N        0.18040    0.09969    0.26363    1.000
    Si116    Si       0.21654    0.11635    0.36057    1.000
    Si117    Si       0.13640    0.12154    0.36866    1.000
    N118     N        0.00736    0.08203    0.43804    1.000
    Si119    Si       0.10124    0.07511    0.41794    1.000
    N120     N        0.10336    0.09151    0.45885    1.000
    N121     N        0.11018    0.11464    0.40224    1.000
    Si122    Si       0.02337    0.06731    0.40041    1.000
    N123     N        0.22013    0.12139    0.43498    1.000
    Si124    Si       0.22343    0.08036    0.42273    1.000
    N125     N        0.17780    0.11914    0.38236    1.000
    N126     N        0.22922    0.07577    0.37791    1.000
    Si127    Si       0.04185    0.08300    0.52555    1.000
    N128     N        0.10879    0.10840    0.52823    1.000
    N129     N        0.04104    0.12565    0.51330    1.000
    N130     N        0.04864    0.07052    0.56550    1.000
    N131     N        0.11198    0.08090    0.59420    1.000
    Si132    Si       0.10923    0.07700    0.49932    1.000
    N133     N        0.17262    0.09771    0.54917    1.000
    Si134    Si       0.13352    0.10800    0.56581    1.000
    N135     N        0.22523    0.12302    0.50831    1.000
    N136     N        0.00732    0.07072    0.62871    1.000
    N137     N        0.99358    0.07244    0.72868    1.000
    N138     N        0.07111    0.09448    0.65563    1.000
    Si139    Si       0.00798    0.11419    0.72659    1.000
    Si140    Si       0.10919    0.08364    0.63970    1.000
    N141     N        0.05056    0.11952    0.71922    1.000
    N142     N        0.13005    0.12215    0.64983    1.000
    N143     N        0.22814    0.10683    0.68278    1.000
    Si144    Si       0.20769    0.12364    0.72129    1.000
    N145     N        0.19140    0.08733    0.74130    1.000
    N146     N        0.04728    0.10381    0.83304    1.000
    Si147    Si       0.08884    0.11334    0.81866    1.000
    N148     N        0.00422    0.11898    0.77027    1.000
    Si149    Si       0.05864    0.12632    0.87123    1.000
    Si150    Si       0.98713    0.07778    0.77067    1.000
    N151     N        0.11409    0.07861    0.81978    1.000
    Si152    Si       0.20609    0.09726    0.78188    1.000
    Si153    Si       0.15588    0.08431    0.82167    1.000
    N154     N        0.17463    0.11979    0.80361    1.000
    N155     N        0.16749    0.08107    0.86409    1.000
    Si156    Si       0.20784    0.09907    0.86794    1.000
    N157     N        0.05782    0.11288    0.91003    1.000
    Si158    Si       0.09379    0.10651    0.93440    1.000
    Si159    Si       0.02002    0.08958    0.92144    1.000
    N160     N        0.99718    0.08992    0.95759    1.000
    N161     N        0.98962    0.10556    0.89675    1.000
    N162     N        0.08507    0.06789    0.95463    1.000
    N163     N        0.13319    0.10832    0.91575    1.000
    Si164    Si       0.15637    0.07251    0.90651    1.000
    N165     N        0.22005    0.12069    0.97850    1.000
    N166     N        0.20146    0.11360    0.90741    1.000
    Si167    Si       0.21481    0.09456    0.94304    1.000
    N168     N        0.09775    0.14926    0.03198    1.000
    Si169    Si       0.00342    0.16213    0.07640    1.000
    N170     N        0.04509    0.17164    0.07809    1.000
    Si171    Si       0.06456    0.17294    0.11719    1.000
    Si172    Si       0.07141    0.18173    0.04302    1.000
    N173     N        0.04928    0.17952    0.00550    1.000
    N174     N        0.09909    0.14665    0.12054    1.000
    N175     N        0.16016    0.13805    0.00282    1.000
    N176     N        0.23682    0.12928    0.04930    1.000
    N177     N        0.08441    0.15442    0.20401    1.000
    N178     N        0.03508    0.16862    0.14999    1.000
    N179     N        0.01923    0.17311    0.21750    1.000
    Si180    Si       0.05176    0.18202    0.18873    1.000
    Si181    Si       0.98998    0.16190    0.15231    1.000
    Si182    Si       0.07720    0.14134    0.24305    1.000
    Si183    Si       0.19539    0.15548    0.20548    1.000
    N184     N        0.15390    0.14349    0.21625    1.000
    Si185    Si       0.13668    0.16619    0.12513    1.000
    Si186    Si       0.21580    0.13004    0.13247    1.000
    N187     N        0.21842    0.15565    0.24313    1.000
    Si188    Si       0.12418    0.17292    0.20156    1.000
    N189     N        0.21274    0.12996    0.17639    1.000
    N190     N        0.17305    0.14369    0.12694    1.000
    N191     N        0.05776    0.14230    0.31335    1.000
    N192     N        0.00348    0.16654    0.27907    1.000
    Si193    Si       0.01307    0.13917    0.31320    1.000
    N194     N        0.07139    0.17968    0.26314    1.000
    Si195    Si       0.07133    0.18380    0.30866    1.000
    N196     N        0.20259    0.13468    0.32299    1.000
    N197     N        0.16555    0.16560    0.27839    1.000
    N198     N        0.13410    0.15939    0.34728    1.000
    Si199    Si       0.17013    0.16321    0.32148    1.000
    Si200    Si       0.15130    0.12977    0.25570    1.000
    Si201    Si       0.21206    0.12898    0.27987    1.000
    Si202    Si       0.99837    0.13127    0.38278    1.000
    N203     N        0.09396    0.15670    0.47518    1.000
    N204     N        0.02779    0.15618    0.40233    1.000
    Si205    Si       0.11139    0.13150    0.44337    1.000
    Si206    Si       0.01280    0.15458    0.49733    1.000
    N207     N        0.20066    0.18054    0.46932    1.000
    Si208    Si       0.22951    0.14576    0.47072    1.000
    N209     N        0.15343    0.14210    0.44739    1.000
    Si210    Si       0.15805    0.17198    0.47848    1.000
    Si211    Si       0.18571    0.14519    0.41839    1.000
    Si212    Si       0.08206    0.13974    0.51460    1.000
    N213     N        0.09065    0.17041    0.54529    1.000
    N214     N        0.02564    0.17777    0.58071    1.000
    N215     N        0.08267    0.17933    0.61837    1.000
    N216     N        0.13604    0.14744    0.58395    1.000
    N217     N        0.16386    0.15959    0.52094    1.000
    N218     N        0.22705    0.13832    0.56505    1.000
    Si219    Si       0.13507    0.17445    0.55000    1.000
    Si220    Si       0.19365    0.13351    0.53743    1.000
    Si221    Si       0.23947    0.16819    0.59359    1.000
    Si222    Si       0.99698    0.17495    0.68158    1.000
    N223     N        0.03746    0.16319    0.66834    1.000
    N224     N        0.10076    0.15385    0.70273    1.000
    Si225    Si       0.08041    0.14309    0.74186    1.000
    Si226    Si       0.06625    0.13127    0.68071    1.000
    Si227    Si       0.24497    0.14365    0.66215    1.000
    N228     N        0.22572    0.17541    0.63494    1.000
    Si229    Si       0.12087    0.15924    0.62279    1.000
    N230     N        0.17339    0.14868    0.71035    1.000
    Si231    Si       0.14147    0.14728    0.68318    1.000
    N232     N        0.23382    0.16544    0.70365    1.000
    N233     N        0.09515    0.14029    0.85386    1.000
    N234     N        0.04128    0.16991    0.81279    1.000
    Si235    Si       0.02103    0.13235    0.80669    1.000
    N236     N        0.08734    0.12803    0.77978    1.000
    Si237    Si       0.18656    0.15148    0.83231    1.000
    N238     N        0.22333    0.13372    0.84636    1.000
    Si239    Si       0.12182    0.17310    0.86613    1.000
    N240     N        0.22521    0.13412    0.76112    1.000
    N241     N        0.16250    0.15430    0.86981    1.000
    Si242    Si       0.04255    0.15803    0.92131    1.000
    N243     N        0.02845    0.15783    0.87893    1.000
    N244     N        0.02226    0.14850    0.95782    1.000
    N245     N        0.09235    0.13587    0.96721    1.000
    Si246    Si       0.05424    0.14095    0.98942    1.000
    Si247    Si       0.16547    0.13748    0.90842    1.000
    N248     N        0.17245    0.16526    0.93938    1.000
    Si249    Si       0.12044    0.15574    0.99248    1.000
    Si250    Si       0.19221    0.15325    0.97839    1.000
    N251     N        0.09822    0.21662    0.04448    1.000
    N252     N        0.00263    0.22726    0.10402    1.000
    Si253    Si       0.04234    0.24034    0.11800    1.000
    Si254    Si       0.11140    0.22356    0.08428    1.000
    Si255    Si       0.11952    0.22414    0.00749    1.000
    Si256    Si       0.20406    0.21673    0.02556    1.000
    Si257    Si       0.18719    0.21109    0.09723    1.000
    N258     N        0.16379    0.23234    0.01485    1.000
    N259     N        0.14502    0.19856    0.09793    1.000
    N260     N        0.21081    0.19447    0.06473    1.000
    N261     N        0.07991    0.21380    0.11780    1.000
    N262     N        0.07963    0.21506    0.19119    1.000
    Si263    Si       0.08359    0.21767    0.23603    1.000
    Si264    Si       0.10634    0.22306    0.15696    1.000
    Si265    Si       0.98833    0.23694    0.14693    1.000
    N266     N        0.03860    0.23143    0.23801    1.000
    Si267    Si       0.17232    0.21821    0.17081    1.000
    N268     N        0.12583    0.20268    0.23416    1.000
    N269     N        0.19914    0.21623    0.13790    1.000
    N270     N        0.13416    0.18914    0.16314    1.000
    N271     N        0.18677    0.19986    0.20682    1.000
    Si272    Si       0.23895    0.23604    0.14333    1.000
    N273     N        0.03982    0.21557    0.30326    1.000
    Si274    Si       0.02944    0.19576    0.26268    1.000
    Si275    Si       0.03376    0.22987    0.34785    1.000
    N276     N        0.06881    0.19584    0.35864    1.000
    N277     N        0.10799    0.20909    0.31119    1.000
    Si278    Si       0.11399    0.19851    0.35311    1.000
    Si279    Si       0.13021    0.24007    0.29124    1.000
    N280     N        0.18028    0.20405    0.33440    1.000
    Si281    Si       0.19905    0.22657    0.30408    1.000
    N282     N        0.16843    0.23535    0.27365    1.000
    Si283    Si       0.16644    0.19992    0.24680    1.000
    N284     N        0.23564    0.21578    0.28523    1.000
    Si285    Si       0.20395    0.21213    0.36978    1.000
    Si286    Si       0.07284    0.19347    0.46910    1.000
    N287     N        0.01965    0.22589    0.39011    1.000
    N288     N        0.07901    0.20000    0.42690    1.000
    Si289    Si       0.00965    0.22717    0.47835    1.000
    Si290    Si       0.04799    0.19314    0.39801    1.000
    N291     N        0.08167    0.22697    0.49499    1.000
    N292     N        0.03018    0.18829    0.47698    1.000
    N293     N        0.14759    0.20863    0.45268    1.000
    N294     N        0.12664    0.22573    0.38332    1.000
    Si295    Si       0.11521    0.22430    0.42504    1.000
    N296     N        0.19695    0.18566    0.40399    1.000
    Si297    Si       0.18853    0.21026    0.43884    1.000
    N298     N        0.06564    0.23126    0.57085    1.000
    N299     N        0.01709    0.24043    0.52243    1.000
    Si300    Si       0.05864    0.24289    0.53086    1.000
    Si301    Si       0.06670    0.18926    0.57745    1.000
    Si302    Si       0.18724    0.22799    0.57945    1.000
    N303     N        0.15070    0.21038    0.56604    1.000
    N304     N        0.22408    0.20350    0.57311    1.000
    N305     N        0.18728    0.23761    0.62149    1.000
    N306     N        0.23898    0.23322    0.50054    1.000
    Si307    Si       0.09579    0.19705    0.71249    1.000
    Si308    Si       0.05662    0.19887    0.64976    1.000
    N309     N        0.00514    0.21543    0.69680    1.000
    N310     N        0.02965    0.23172    0.63709    1.000
    N311     N        0.08157    0.21989    0.67856    1.000
    Si312    Si       0.00429    0.23525    0.73667    1.000
    N313     N        0.07665    0.18765    0.75000    1.000
    Si314    Si       0.21244    0.21512    0.64661    1.000
    N315     N        0.18983    0.21590    0.68454    1.000
    N316     N        0.13279    0.21525    0.71959    1.000
    Si317    Si       0.14733    0.21685    0.67899    1.000
    N318     N        0.14149    0.18224    0.65284    1.000
    Si319    Si       0.19662    0.18522    0.71322    1.000
    Si320    Si       0.05168    0.20183    0.78231    1.000
    N321     N        0.01292    0.20551    0.76531    1.000
    N322     N        0.06521    0.23963    0.79990    1.000
    Si323    Si       0.03101    0.19045    0.85026    1.000
    N324     N        0.99751    0.21420    0.84232    1.000
    N325     N        0.05836    0.22085    0.86957    1.000
    N326     N        0.12154    0.19923    0.83337    1.000
    Si327    Si       0.20296    0.22298    0.84366    1.000
    Si328    Si       0.21790    0.21041    0.78537    1.000
    N329     N        0.19369    0.20753    0.75045    1.000
    Si330    Si       0.13084    0.23944    0.82996    1.000
    N331     N        0.19800    0.19014    0.81683    1.000
    N332     N        0.22476    0.24415    0.81183    1.000
    Si333    Si       0.15902    0.23233    0.74894    1.000
    Si334    Si       0.03411    0.20447    0.97113    1.000
    N335     N        0.05530    0.19712    0.93317    1.000
    Si336    Si       0.07915    0.22069    0.90689    1.000
    N337     N        0.99140    0.20908    0.98353    1.000
    N338     N        0.11593    0.19520    0.90438    1.000
    N339     N        0.17406    0.22838    0.93726    1.000
    Si340    Si       0.19935    0.19667    0.92200    1.000
    N341     N        0.12377    0.19495    0.97713    1.000
    N342     N        0.21690    0.20876    0.88125    1.000
    Si343    Si       0.14167    0.19940    0.93844    1.000
    N344     N        0.21635    0.18667    0.99502    1.000
    N345     N        0.05153    0.27591    0.09147    1.000
    Si346    Si       0.08972    0.28851    0.10924    1.000
    N347     N        0.00789    0.25683    0.03798    1.000
    Si348    Si       0.03012    0.29218    0.05851    1.000
    N349     N        0.11970    0.26513    0.09219    1.000
    Si350    Si       0.15571    0.28339    0.07485    1.000
    Si351    Si       0.22764    0.26376    0.07055    1.000
    N352     N        0.18646    0.25360    0.08046    1.000
    N353     N        0.14859    0.29512    0.03536    1.000
    N354     N        0.23111    0.25200    0.02831    1.000
    Si355    Si       0.15111    0.27286    0.00139    1.000
    N356     N        0.05896    0.29308    0.21648    1.000
    N357     N        0.08697    0.28180    0.15253    1.000
    Si358    Si       0.04946    0.28684    0.17405    1.000
    Si359    Si       0.02548    0.27281    0.23741    1.000
    Si360    Si       0.09402    0.29347    0.24121    1.000
    N361     N        0.02712    0.25213    0.15848    1.000
    N362     N        0.22526    0.27513    0.24677    1.000
    N363     N        0.14268    0.25061    0.16920    1.000
    Si364    Si       0.12751    0.28989    0.17072    1.000
    N365     N        0.23342    0.26945    0.17136    1.000
    Si366    Si       0.22952    0.29435    0.20719    1.000
    N367     N        0.05932    0.26659    0.33772    1.000
    Si368    Si       0.00867    0.28826    0.31373    1.000
    N369     N        0.03447    0.28210    0.28124    1.000
    N370     N        0.09421    0.25181    0.26366    1.000
    Si371    Si       0.06340    0.25335    0.29534    1.000
    N372     N        0.99475    0.25407    0.33677    1.000
    Si373    Si       0.19103    0.27601    0.27169    1.000
    N374     N        0.13673    0.27244    0.32270    1.000
    N375     N        0.21082    0.27106    0.31082    1.000
    Si376    Si       0.14617    0.25972    0.36434    1.000
    Si377    Si       0.02093    0.28928    0.43000    1.000
    Si378    Si       0.07542    0.26979    0.47551    1.000
    N379     N        0.03514    0.25820    0.45912    1.000
    N380     N        0.10546    0.26350    0.44245    1.000
    N381     N        0.05274    0.29538    0.40154    1.000
    N382     N        0.21283    0.24522    0.43478    1.000
    N383     N        0.12307    0.29057    0.38534    1.000
    N384     N        0.20142    0.29012    0.48678    1.000
    Si385    Si       0.21250    0.27530    0.40462    1.000
    N386     N        0.18781    0.25385    0.37457    1.000
    Si387    Si       0.23016    0.26401    0.47040    1.000
    N388     N        0.01470    0.27792    0.58392    1.000
    N389     N        0.07108    0.28178    0.52061    1.000
    Si390    Si       0.04721    0.25561    0.60311    1.000
    Si391    Si       0.98774    0.26104    0.55221    1.000
    N392     N        0.20337    0.26089    0.55558    1.000
    Si393    Si       0.18805    0.29123    0.52767    1.000
    N394     N        0.23088    0.29307    0.61295    1.000
    Si395    Si       0.23531    0.28899    0.56986    1.000
    N396     N        0.08005    0.27336    0.62547    1.000
    N397     N        0.00216    0.28050    0.69466    1.000
    Si398    Si       0.09289    0.26100    0.66465    1.000
    Si399    Si       0.03865    0.29196    0.71180    1.000
    N400     N        0.07481    0.29276    0.68905    1.000
    N401     N        0.04000    0.26181    0.74249    1.000
    Si402    Si       0.00136    0.24624    0.66665    1.000
    N403     N        0.19525    0.29722    0.66971    1.000
    Si404    Si       0.20907    0.29174    0.74553    1.000
    N405     N        0.13608    0.25818    0.66854    1.000
    N406     N        0.17046    0.27475    0.73327    1.000
    Si407    Si       0.15974    0.28342    0.69108    1.000
    Si408    Si       0.19200    0.28327    0.62802    1.000
    N409     N        0.02942    0.27943    0.84389    1.000
    N410     N        0.10210    0.26447    0.84939    1.000
    Si411    Si       0.07050    0.27237    0.77226    1.000
    Si412    Si       0.06223    0.25314    0.84023    1.000
    N413     N        0.10480    0.28661    0.74954    1.000
    N414     N        0.16765    0.24559    0.85218    1.000
    Si415    Si       0.22241    0.28757    0.81204    1.000
    Si416    Si       0.14755    0.28923    0.77054    1.000
    N417     N        0.14468    0.24928    0.78733    1.000
    N418     N        0.19351    0.30421    0.78411    1.000
    N419     N        0.08695    0.26245    0.92041    1.000
    Si420    Si       0.07493    0.27239    0.96120    1.000
    Si421    Si       0.10282    0.28690    0.88697    1.000
    N422     N        0.03976    0.24822    0.97212    1.000
    N423     N        0.11097    0.26302    0.98830    1.000
    Si424    Si       0.00122    0.25346    0.99397    1.000
    N425     N        0.20717    0.28585    0.90661    1.000
    N426     N        0.23705    0.25569    0.96102    1.000
    Si427    Si       0.17857    0.28072    0.87396    1.000
    Si428    Si       0.19815    0.26552    0.94446    1.000
    N429     N        0.17799    0.28781    0.97306    1.000
    N430     N        0.14349    0.30228    0.88650    1.000
    N431     N        0.05285    0.32518    0.04086    1.000
    N432     N        0.09470    0.32999    0.10122    1.000
    Si433    Si       0.06975    0.35214    0.07535    1.000
    Si434    Si       0.07328    0.33900    0.00430    1.000
    N435     N        0.11027    0.35193    0.02734    1.000
    Si436    Si       0.99897    0.35577    0.07297    1.000
    N437     N        0.03374    0.35596    0.10077    1.000
    N438     N        0.99308    0.31261    0.07006    1.000
    Si439    Si       0.20411    0.33685    0.09302    1.000
    N440     N        0.16322    0.33002    0.08146    1.000
    Si441    Si       0.15048    0.33881    0.03741    1.000
    Si442    Si       0.13508    0.34239    0.11237    1.000
    N443     N        0.17401    0.35359    0.00535    1.000
    N444     N        0.23237    0.30652    0.07546    1.000
    N445     N        0.01959    0.31827    0.16699    1.000
    Si446    Si       0.02848    0.35533    0.14482    1.000
    N447     N        0.12468    0.30292    0.21275    1.000
    N448     N        0.19269    0.31506    0.20361    1.000
    N449     N        0.14711    0.31969    0.14729    1.000
    Si450    Si       0.15747    0.32507    0.23114    1.000
    N451     N        0.21280    0.34248    0.13486    1.000
    Si452    Si       0.18302    0.33476    0.16585    1.000
    N453     N        0.08292    0.33803    0.35948    1.000
    N454     N        0.02177    0.32268    0.33772    1.000
    N455     N        0.09553    0.31808    0.27847    1.000
    Si456    Si       0.07021    0.35414    0.27038    1.000
    Si457    Si       0.00772    0.35924    0.32236    1.000
    Si458    Si       0.05469    0.30722    0.36100    1.000
    N459     N        0.02297    0.35921    0.28012    1.000
    Si460    Si       0.13193    0.31104    0.30162    1.000
    N461     N        0.13444    0.34558    0.32779    1.000
    N462     N        0.16294    0.30690    0.27028    1.000
    Si463    Si       0.12746    0.33248    0.37493    1.000
    N464     N        0.00849    0.32343    0.45709    1.000
    Si465    Si       0.04347    0.34379    0.47333    1.000
    N466     N        0.07185    0.31460    0.45949    1.000
    Si467    Si       0.09463    0.30003    0.42065    1.000
    Si468    Si       0.19226    0.32493    0.46388    1.000
    N469     N        0.15238    0.33498    0.47314    1.000
    N470     N        0.11574    0.34414    0.41532    1.000
    N471     N        0.21030    0.31407    0.42553    1.000
    N472     N        0.23088    0.35131    0.47876    1.000
    Si473    Si       0.20305    0.35214    0.40078    1.000
    N474     N        0.17021    0.33502    0.37673    1.000
    Si475    Si       0.00522    0.31964    0.59945    1.000
    Si476    Si       0.07264    0.32121    0.53700    1.000
    N477     N        0.03615    0.33684    0.51693    1.000
    N478     N        0.09432    0.31516    0.57826    1.000
    N479     N        0.10060    0.35300    0.52578    1.000
    Si480    Si       0.99377    0.33333    0.52730    1.000
    N481     N        0.99453    0.34818    0.56797    1.000
    Si482    Si       0.07959    0.31755    0.62118    1.000
    N483     N        0.04066    0.33606    0.61864    1.000
    Si484    Si       0.13691    0.31864    0.57944    1.000
    N485     N        0.21872    0.32156    0.54532    1.000
    Si486    Si       0.14220    0.34570    0.51385    1.000
    N487     N        0.15237    0.31120    0.54000    1.000
    N488     N        0.15623    0.30454    0.61492    1.000
    Si489    Si       0.10354    0.31434    0.71664    1.000
    N490     N        0.10340    0.34737    0.63997    1.000
    N491     N        0.03674    0.33031    0.73249    1.000
    N492     N        0.09960    0.35362    0.73801    1.000
    N493     N        0.21741    0.32791    0.72667    1.000
    N494     N        0.13798    0.31945    0.69089    1.000
    Si495    Si       0.14517    0.33186    0.64996    1.000
    Si496    Si       0.22887    0.32363    0.68436    1.000
    Si497    Si       0.03308    0.31882    0.82543    1.000
    Si498    Si       0.09365    0.33869    0.78300    1.000
    Si499    Si       0.00332    0.33989    0.75832    1.000
    N500     N        0.99692    0.32560    0.79966    1.000
    N501     N        0.03140    0.35840    0.84935    1.000
    N502     N        0.06520    0.30821    0.79713    1.000
    Si503    Si       0.17417    0.34027    0.80523    1.000
    N504     N        0.13315    0.32688    0.79291    1.000
    N505     N        0.16539    0.35762    0.84453    1.000
    N506     N        0.20641    0.30278    0.84637    1.000
    N507     N        0.08868    0.32563    0.87055    1.000
    N508     N        0.02104    0.31592    0.91549    1.000
    Si509    Si       0.04162    0.33932    0.94444    1.000
    N510     N        0.06753    0.31548    0.96900    1.000
    N511     N        0.00931    0.35791    0.97150    1.000
    Si512    Si       0.13419    0.34045    0.86863    1.000
    N513     N        0.19286    0.35039    0.94146    1.000
    Si514    Si       0.19622    0.32734    0.97726    1.000
    Si515    Si       0.23332    0.31292    0.88052    1.000
    N516     N        0.23455    0.35635    0.88503    1.000
    N517     N        0.23426    0.31787    0.99542    1.000
    Si518    Si       0.09942    0.39808    0.02880    1.000
    N519     N        0.01240    0.38561    0.04449    1.000
    N520     N        0.08701    0.39093    0.07051    1.000
    Si521    Si       0.02320    0.38655    0.00106    1.000
    Si522    Si       0.99209    0.41638    0.06845    1.000
    Si523    Si       0.11234    0.41317    0.09795    1.000
    N524     N        0.14221    0.40735    0.01989    1.000
    N525     N        0.22418    0.36928    0.07185    1.000
    Si526    Si       0.23628    0.40006    0.04470    1.000
    N527     N        0.13583    0.38552    0.12013    1.000
    N528     N        0.07878    0.37132    0.23063    1.000
    N529     N        0.05395    0.38189    0.16649    1.000
    Si530    Si       0.04950    0.39538    0.21007    1.000
    N531     N        0.00540    0.38938    0.21491    1.000
    Si532    Si       0.08450    0.41476    0.16496    1.000
    Si533    Si       0.21023    0.38950    0.20402    1.000
    N534     N        0.18046    0.37774    0.17685    1.000
    Si535    Si       0.15460    0.40346    0.15492    1.000
    N536     N        0.12241    0.40306    0.18510    1.000
    N537     N        0.15304    0.36721    0.24178    1.000
    N538     N        0.22165    0.38304    0.24491    1.000
    Si539    Si       0.11900    0.38932    0.22666    1.000
    N540     N        0.01651    0.39872    0.33656    1.000
    N541     N        0.08663    0.38514    0.29575    1.000
    N542     N        0.09080    0.40348    0.36385    1.000
    Si543    Si       0.00440    0.39307    0.26009    1.000
    Si544    Si       0.09761    0.37143    0.33540    1.000
    Si545    Si       0.98861    0.42088    0.36472    1.000
    N546     N        0.15492    0.40498    0.34977    1.000
    Si547    Si       0.18542    0.38263    0.26837    1.000
    Si548    Si       0.17200    0.36653    0.34392    1.000
    N549     N        0.21471    0.37978    0.36614    1.000
    N550     N        0.19566    0.36569    0.30755    1.000
    Si551    Si       0.23389    0.36395    0.32865    1.000
    N552     N        0.03757    0.38625    0.46790    1.000
    Si553    Si       0.02063    0.42163    0.48415    1.000
    Si554    Si       0.22761    0.39534    0.47970    1.000
    N555     N        0.12295    0.39690    0.46855    1.000
    Si556    Si       0.14010    0.36570    0.44402    1.000
    N557     N        0.18031    0.37553    0.42808    1.000
    Si558    Si       0.17810    0.41893    0.42861    1.000
    N559     N        0.06548    0.38531    0.57800    1.000
    Si560    Si       0.10420    0.38036    0.56098    1.000
    Si561    Si       0.04711    0.37745    0.61897    1.000
    N562     N        0.00680    0.39107    0.61881    1.000
    N563     N        0.01006    0.42020    0.55755    1.000
    Si564    Si       0.99137    0.38913    0.57864    1.000
    Si565    Si       0.05340    0.42155    0.55054    1.000
    Si566    Si       0.18642    0.41021    0.54145    1.000
    N567     N        0.15935    0.38501    0.52005    1.000
    Si568    Si       0.15925    0.38983    0.61050    1.000
    N569     N        0.22423    0.39607    0.52542    1.000
    N570     N        0.18582    0.41231    0.58524    1.000
    N571     N        0.13619    0.36478    0.58473    1.000
    Si572    Si       0.13213    0.42035    0.50669    1.000
    Si573    Si       0.10704    0.39616    0.72858    1.000
    N574     N        0.06652    0.40556    0.71894    1.000
    Si575    Si       0.10584    0.39077    0.65018    1.000
    N576     N        0.06484    0.40341    0.65017    1.000
    Si577    Si       0.23498    0.41067    0.66901    1.000
    N578     N        0.12479    0.39822    0.68795    1.000
    Si579    Si       0.16782    0.39696    0.68318    1.000
    N580     N        0.18287    0.39138    0.72334    1.000
    N581     N        0.16754    0.36840    0.64791    1.000
    Si582    Si       0.04925    0.38959    0.82273    1.000
    N583     N        0.08126    0.39560    0.85059    1.000
    N584     N        0.01188    0.38228    0.75256    1.000
    N585     N        0.06716    0.37412    0.78691    1.000
    Si586    Si       0.99088    0.36567    0.86829    1.000
    Si587    Si       0.05414    0.37136    0.74308    1.000
    N588     N        0.18862    0.37284    0.78085    1.000
    Si589    Si       0.16932    0.40717    0.76163    1.000
    Si590    Si       0.17958    0.39945    0.85252    1.000
    N591     N        0.22057    0.40490    0.83605    1.000
    Si592    Si       0.21320    0.36697    0.74457    1.000
    Si593    Si       0.22820    0.41684    0.79288    1.000
    N594     N        0.12945    0.42254    0.75556    1.000
    Si595    Si       0.08380    0.39400    0.95545    1.000
    N596     N        0.06202    0.37194    0.92354    1.000
    Si597    Si       0.07564    0.36512    0.88124    1.000
    N598     N        0.06617    0.38144    0.99372    1.000
    N599     N        0.23647    0.40483    0.93256    1.000
    N600     N        0.18910    0.41636    0.96790    1.000
    N601     N        0.12776    0.39359    0.95617    1.000
    Si602    Si       0.23040    0.40989    0.97434    1.000
    Si603    Si       0.21091    0.37685    0.91370    1.000
    Si604    Si       0.15926    0.38915    0.98445    1.000
    N605     N        0.12163    0.37269    0.89363    1.000
    Si606    Si       0.13805    0.40765    0.91407    1.000
    N607     N        0.17943    0.40555    0.89634    1.000
    N608     N        0.08561    0.43996    0.02546    1.000
    Si609    Si       0.05357    0.45871    0.11075    1.000
    N610     N        0.01685    0.43732    0.09822    1.000
    N611     N        0.16654    0.47186    0.01377    1.000
    Si612    Si       0.15614    0.46860    0.10827    1.000
    N613     N        0.13861    0.44016    0.07829    1.000
    Si614    Si       0.16193    0.43723    0.04176    1.000
    Si615    Si       0.21456    0.46648    0.00513    1.000
    N616     N        0.20657    0.43046    0.03727    1.000
    N617     N        0.08445    0.43244    0.12619    1.000
    Si618    Si       0.09794    0.46039    0.22157    1.000
    Si619    Si       0.99632    0.46274    0.13250    1.000
    N620     N        0.06809    0.43397    0.19966    1.000
    N621     N        0.01336    0.46541    0.21264    1.000
    N622     N        0.23136    0.47125    0.15653    1.000
    N623     N        0.16890    0.44393    0.14218    1.000
    N624     N        0.20945    0.43474    0.20154    1.000
    Si625    Si       0.19203    0.46565    0.17016    1.000
    Si626    Si       0.21130    0.44606    0.24486    1.000
    N627     N        0.07105    0.44763    0.31670    1.000
    Si628    Si       0.03169    0.46197    0.25431    1.000
    Si629    Si       0.10358    0.47576    0.32429    1.000
    Si630    Si       0.05276    0.42363    0.34960    1.000
    N631     N        0.11163    0.46833    0.36585    1.000
    N632     N        0.03811    0.42020    0.26397    1.000
    N633     N        0.11461    0.42737    0.25048    1.000
    Si634    Si       0.07799    0.42390    0.28073    1.000
    Si635    Si       0.17192    0.43200    0.31907    1.000
    N636     N        0.13754    0.45899    0.30730    1.000
    N637     N        0.20707    0.44793    0.33814    1.000
    Si638    Si       0.14946    0.45407    0.26568    1.000
    N639     N        0.18121    0.42609    0.27359    1.000
    Si640    Si       0.22391    0.42185    0.37173    1.000
    Si641    Si       0.12542    0.42795    0.37248    1.000
    N642     N        0.02431    0.44437    0.37587    1.000
    N643     N        0.07696    0.44981    0.41882    1.000
    N644     N        0.01529    0.45366    0.45423    1.000
    Si645    Si       0.03398    0.45744    0.41626    1.000
    Si646    Si       0.10601    0.43066    0.44375    1.000
    N647     N        0.10877    0.45813    0.47731    1.000
    N648     N        0.13869    0.42625    0.41378    1.000
    Si649    Si       0.19077    0.46131    0.48784    1.000
    N650     N        0.19744    0.42218    0.46787    1.000
    N651     N        0.20632    0.44099    0.40559    1.000
    N652     N        0.06237    0.45243    0.58124    1.000
    N653     N        0.04682    0.44217    0.51123    1.000
    Si654    Si       0.10107    0.46058    0.56473    1.000
    Si655    Si       0.02691    0.47212    0.59756    1.000
    Si656    Si       0.07337    0.47265    0.49849    1.000
    N657     N        0.10410    0.42306    0.54202    1.000
    Si658    Si       0.98885    0.45233    0.53604    1.000
    N659     N        0.22934    0.45629    0.56558    1.000
    N660     N        0.16732    0.44622    0.52019    1.000
    Si661    Si       0.21221    0.44250    0.60368    1.000
    N662     N        0.99299    0.46016    0.62357    1.000
    N663     N        0.01011    0.45342    0.73992    1.000
    N664     N        0.05601    0.46629    0.68815    1.000
    Si665    Si       0.04860    0.47368    0.73246    1.000
    Si666    Si       0.04670    0.42206    0.68420    1.000
    N667     N        0.00390    0.42178    0.67973    1.000
    N668     N        0.12995    0.41915    0.62425    1.000
    Si669    Si       0.13936    0.46305    0.62648    1.000
    N670     N        0.19451    0.42925    0.67142    1.000
    Si671    Si       0.20088    0.47107    0.66512    1.000
    N672     N        0.18398    0.47146    0.62447    1.000
    Si673    Si       0.05500    0.45776    0.80667    1.000
    N674     N        0.08917    0.46262    0.83410    1.000
    N675     N        0.07374    0.46514    0.76810    1.000
    N676     N        0.02718    0.42502    0.80809    1.000
    Si677    Si       0.10852    0.42830    0.85226    1.000
    Si678    Si       0.00789    0.42129    0.76843    1.000
    Si679    Si       0.11691    0.46315    0.76185    1.000
    N680     N        0.19244    0.43939    0.78148    1.000
    Si681    Si       0.17143    0.45907    0.81238    1.000
    N682     N        0.15052    0.42893    0.83713    1.000
    N683     N        0.04058    0.45623    0.88845    1.000
    Si684    Si       0.07412    0.45881    0.91541    1.000
    N685     N        0.07171    0.43588    0.95214    1.000
    Si686    Si       0.05830    0.44833    0.99158    1.000
    N687     N        0.10854    0.43882    0.89474    1.000
    Si688    Si       0.00849    0.47812    0.90378    1.000
    N689     N        0.01664    0.43119    0.99265    1.000
    Si690    Si       0.19457    0.43494    0.92562    1.000
    N691     N        0.15620    0.45893    0.93141    1.000
    N692     N        0.22558    0.46109    0.91035    1.000
    Si693    Si       0.13164    0.47579    0.89849    1.000
    N694     N        0.06099    0.48722    0.07780    1.000
    Si695    Si       0.05610    0.52878    0.08604    1.000
    N696     N        0.06094    0.49013    0.00427    1.000
    Si697    Si       0.08304    0.48269    0.04089    1.000
    N698     N        0.11758    0.50844    0.05223    1.000
    Si699    Si       0.16058    0.50606    0.03966    1.000
    N700     N        0.17712    0.49435    0.07894    1.000
    Si701    Si       0.12537    0.52886    0.09305    1.000
    N702     N        0.23455    0.49743    0.03143    1.000
    Si703    Si       0.19688    0.53263    0.09456    1.000
    N704     N        0.03795    0.52333    0.20214    1.000
    N705     N        0.09541    0.48580    0.18437    1.000
    Si706    Si       0.99551    0.53078    0.19698    1.000
    Si707    Si       0.05079    0.47957    0.18796    1.000
    N708     N        0.03704    0.47689    0.14644    1.000
    Si709    Si       0.12799    0.50750    0.16646    1.000
    N710     N        0.12975    0.49850    0.12442    1.000
    N711     N        0.16458    0.49494    0.18623    1.000
    N712     N        0.22518    0.53291    0.12909    1.000
    Si713    Si       0.16579    0.50838    0.22693    1.000
    N714     N        0.13080    0.48786    0.24293    1.000
    N715     N        0.19264    0.48709    0.25197    1.000
    Si716    Si       0.09978    0.51034    0.26383    1.000
    N717     N        0.09916    0.51373    0.30594    1.000
    N718     N        0.00873    0.48479    0.28262    1.000
    N719     N        0.07210    0.52245    0.37026    1.000
    Si720    Si       0.99097    0.52290    0.27359    1.000
    N721     N        0.99500    0.53100    0.36967    1.000
    N722     N        0.07035    0.47979    0.25063    1.000
    Si723    Si       0.20845    0.51315    0.28183    1.000
    N724     N        0.19337    0.52083    0.32125    1.000
    Si725    Si       0.20199    0.48975    0.34875    1.000
    N726     N        0.03540    0.50068    0.41822    1.000
    Si727    Si       0.01330    0.50133    0.45727    1.000
    N728     N        0.05027    0.50675    0.48404    1.000
    Si729    Si       0.08603    0.48843    0.39623    1.000
    Si730    Si       0.03440    0.53323    0.38643    1.000
    Si731    Si       0.19747    0.48256    0.41982    1.000
    N732     N        0.17807    0.49843    0.38491    1.000
    N733     N        0.17167    0.48084    0.45442    1.000
    N734     N        0.11388    0.50821    0.42121    1.000
    Si735    Si       0.14555    0.52597    0.39567    1.000
    Si736    Si       0.12809    0.49316    0.45954    1.000
    N737     N        0.12822    0.52544    0.48810    1.000
    N738     N        0.23502    0.50000    0.42972    1.000
    N739     N        0.09373    0.49077    0.53260    1.000
    N740     N        0.00888    0.48824    0.56192    1.000
    Si741    Si       0.10628    0.52962    0.52462    1.000
    Si742    Si       0.99382    0.51737    0.53282    1.000
    N743     N        0.98662    0.48628    0.50417    1.000
    Si744    Si       0.15482    0.51559    0.58409    1.000
    N745     N        0.18900    0.51551    0.55547    1.000
    Si746    Si       0.22455    0.49350    0.54195    1.000
    N747     N        0.22556    0.48202    0.50021    1.000
    N748     N        0.12787    0.48233    0.58900    1.000
    N749     N        0.04442    0.50092    0.62309    1.000
    Si750    Si       0.07293    0.49540    0.65844    1.000
    N751     N        0.06781    0.53795    0.66887    1.000
    N752     N        0.04499    0.51605    0.74295    1.000
    N753     N        0.12776    0.49457    0.73372    1.000
    Si754    Si       0.13891    0.50401    0.69076    1.000
    Si755    Si       0.20789    0.51628    0.72185    1.000
    N756     N        0.18124    0.49533    0.69304    1.000
    N757     N        0.11703    0.48332    0.65927    1.000
    N758     N        0.23008    0.54134    0.62406    1.000
    N759     N        0.03241    0.49350    0.81320    1.000
    Si760    Si       0.05269    0.52225    0.78665    1.000
    Si761    Si       0.99745    0.50216    0.83593    1.000
    N762     N        0.09170    0.53088    0.80691    1.000
    Si763    Si       0.11257    0.49769    0.82572    1.000
    Si764    Si       0.18233    0.51545    0.85628    1.000
    N765     N        0.14008    0.49861    0.86119    1.000
    Si766    Si       0.14597    0.52016    0.76271    1.000
    N767     N        0.18784    0.52817    0.75928    1.000
    N768     N        0.14051    0.48591    0.79335    1.000
    N769     N        0.20080    0.48218    0.83462    1.000
    N770     N        0.99746    0.51425    0.87807    1.000
    N771     N        0.09534    0.49610    0.91313    1.000
    N772     N        0.02039    0.49147    0.94617    1.000
    Si773    Si       0.04414    0.51754    0.97485    1.000
    Si774    Si       0.10657    0.52980    0.93987    1.000
    N775     N        0.00751    0.53397    0.99094    1.000
    N776     N        0.19427    0.52372    0.89966    1.000
    Si777    Si       0.16193    0.47899    0.96914    1.000
    N778     N        0.13825    0.51473    0.96902    1.000
    N779     N        0.20200    0.49149    0.96640    1.000
    Si780    Si       0.21965    0.50184    0.92661    1.000
    N781     N        0.04602    0.54793    0.04735    1.000
    N782     N        0.08773    0.54704    0.10734    1.000
    Si783    Si       0.00565    0.54848    0.03055    1.000
    N784     N        0.02110    0.54436    0.10921    1.000
    Si785    Si       0.02884    0.58723    0.11677    1.000
    Si786    Si       0.04362    0.59232    0.04763    1.000
    N787     N        0.00223    0.59244    0.03352    1.000
    N788     N        0.15920    0.55538    0.09778    1.000
    N789     N        0.22536    0.55387    0.06992    1.000
    Si790    Si       0.22269    0.54081    0.02748    1.000
    N791     N        0.24103    0.57380    0.00645    1.000
    N792     N        0.17880    0.53996    0.02005    1.000
    Si793    Si       0.16332    0.59338    0.12172    1.000
    Si794    Si       0.09343    0.57240    0.14227    1.000
    Si795    Si       0.05009    0.55206    0.23432    1.000
    N796     N        0.09134    0.54437    0.23941    1.000
    N797     N        0.05333    0.58911    0.15269    1.000
    N798     N        0.99145    0.56830    0.17595    1.000
    N799     N        0.03932    0.59328    0.22562    1.000
    Si800    Si       0.20094    0.57043    0.22501    1.000
    N801     N        0.11727    0.54962    0.17298    1.000
    Si802    Si       0.11955    0.56355    0.21444    1.000
    N803     N        0.23182    0.55639    0.19460    1.000
    N804     N        0.16100    0.55063    0.22423    1.000
    N805     N        0.18687    0.58909    0.15648    1.000
    Si806    Si       0.22486    0.56792    0.15337    1.000
    N807     N        0.08813    0.58248    0.32792    1.000
    N808     N        0.01876    0.55518    0.26846    1.000
    N809     N        0.00274    0.58660    0.33152    1.000
    Si810    Si       0.09773    0.54200    0.33900    1.000
    Si811    Si       0.17562    0.55631    0.33933    1.000
    N812     N        0.21391    0.55336    0.26534    1.000
    N813     N        0.16363    0.59113    0.31632    1.000
    N814     N        0.13762    0.54334    0.35709    1.000
    N815     N        0.20390    0.56975    0.36795    1.000
    N816     N        0.06520    0.57687    0.46363    1.000
    N817     N        0.03763    0.57647    0.39672    1.000
    N818     N        0.00435    0.54554    0.46102    1.000
    Si819    Si       0.04121    0.55060    0.48980    1.000
    Si820    Si       0.09602    0.58785    0.49136    1.000
    Si821    Si       0.06169    0.59668    0.42759    1.000
    N822     N        0.19226    0.55285    0.49118    1.000
    N823     N        0.22473    0.59230    0.43883    1.000
    Si824    Si       0.23050    0.57106    0.47727    1.000
    N825     N        0.16658    0.54943    0.42531    1.000
    Si826    Si       0.15490    0.55359    0.46799    1.000
    N827     N        0.13312    0.59156    0.46897    1.000
    Si828    Si       0.19204    0.58133    0.40915    1.000
    N829     N        0.07804    0.56139    0.52306    1.000
    N830     N        0.01109    0.56375    0.59250    1.000
    Si831    Si       0.04802    0.56360    0.55821    1.000
    N832     N        0.01657    0.55366    0.52674    1.000
    N833     N        0.07265    0.55200    0.59166    1.000
    Si834    Si       0.11605    0.56453    0.58736    1.000
    Si835    Si       0.17459    0.55091    0.53275    1.000
    N836     N        0.13530    0.54417    0.55399    1.000
    N837     N        0.14481    0.54365    0.61516    1.000
    N838     N        0.18192    0.59175    0.54171    1.000
    Si839    Si       0.04028    0.54766    0.62563    1.000
    Si840    Si       0.07322    0.58052    0.67760    1.000
    N841     N        0.03714    0.58533    0.70837    1.000
    Si842    Si       0.02458    0.55495    0.73868    1.000
    N843     N        0.03886    0.58839    0.64763    1.000
    Si844    Si       0.00607    0.57174    0.67873    1.000
    N845     N        0.10677    0.58835    0.64264    1.000
    N846     N        0.99911    0.53963    0.64995    1.000
    N847     N        0.98864    0.54616    0.71473    1.000
    N848     N        0.17726    0.59631    0.65272    1.000
    Si849    Si       0.20096    0.59025    0.68813    1.000
    N850     N        0.14002    0.54853    0.68923    1.000
    N851     N        0.21924    0.55098    0.69641    1.000
    Si852    Si       0.14275    0.56919    0.65023    1.000
    Si853    Si       0.13489    0.58142    0.72082    1.000
    N854     N        0.01089    0.57857    0.84525    1.000
    N855     N        0.03207    0.56098    0.78211    1.000
    Si856    Si       0.99780    0.56760    0.80530    1.000
    Si857    Si       0.10598    0.57020    0.79613    1.000
    N858     N        0.12906    0.56278    0.75909    1.000
    N859     N        0.18914    0.54728    0.82903    1.000
    Si860    Si       0.17769    0.58567    0.84272    1.000
    Si861    Si       0.21152    0.54834    0.78932    1.000
    N862     N        0.13489    0.58653    0.83142    1.000
    N863     N        0.21832    0.58888    0.77677    1.000
    N864     N        0.03970    0.56525    0.90392    1.000
    Si865    Si       0.00267    0.55772    0.88157    1.000
    Si866    Si       0.08441    0.58514    0.97831    1.000
    N867     N        0.07393    0.54473    0.96379    1.000
    N868     N        0.18695    0.56457    0.95483    1.000
    Si869    Si       0.17212    0.56010    0.91538    1.000
    N870     N        0.18338    0.58919    0.88584    1.000
    N871     N        0.12779    0.58410    0.98587    1.000
    Si872    Si       0.21797    0.58984    0.97175    1.000
    N873     N        0.12614    0.56114    0.91588    1.000
    Si874    Si       0.15636    0.55060    0.98272    1.000
    N875     N        0.04957    0.61164    0.08745    1.000
    N876     N        0.06160    0.60319    0.00909    1.000
    N877     N        0.18137    0.62907    0.10244    1.000
    Si878    Si       0.22171    0.63610    0.11883    1.000
    Si879    Si       0.20493    0.65686    0.00840    1.000
    N880     N        0.99104    0.60653    0.12423    1.000
    N881     N        0.00460    0.63687    0.18117    1.000
    Si882    Si       0.99708    0.64670    0.14083    1.000
    Si883    Si       0.10266    0.64748    0.21177    1.000
    N884     N        0.11373    0.60605    0.21099    1.000
    Si885    Si       0.02481    0.59706    0.18465    1.000
    Si886    Si       0.21186    0.64711    0.23846    1.000
    Si887    Si       0.19194    0.62936    0.17746    1.000
    N888     N        0.12136    0.60588    0.12981    1.000
    Si889    Si       0.12172    0.64997    0.13961    1.000
    N890     N        0.22705    0.64861    0.15887    1.000
    N891     N        0.15763    0.65062    0.16511    1.000
    N892     N        0.20306    0.61278    0.21486    1.000
    N893     N        0.04285    0.62008    0.28982    1.000
    N894     N        0.04995    0.63154    0.35734    1.000
    Si895    Si       0.07277    0.64809    0.27627    1.000
    Si896    Si       0.04624    0.59841    0.32703    1.000
    Si897    Si       0.01609    0.60039    0.26265    1.000
    N898     N        0.11274    0.63319    0.28249    1.000
    N899     N        0.19307    0.64824    0.34250    1.000
    Si900    Si       0.12195    0.60866    0.31790    1.000
    N901     N        0.12650    0.63486    0.35226    1.000
    Si902    Si       0.19365    0.62235    0.30905    1.000
    N903     N        0.18524    0.64454    0.27289    1.000
    N904     N        0.23378    0.60685    0.30657    1.000
    Si905    Si       0.09017    0.63807    0.37573    1.000
    Si906    Si       0.02214    0.61993    0.38941    1.000
    N907     N        0.03445    0.63301    0.42927    1.000
    N908     N        0.09774    0.61710    0.41259    1.000
    Si909    Si       0.00560    0.63792    0.46274    1.000
    N910     N        0.16784    0.61552    0.40724    1.000
    N911     N        0.22884    0.64994    0.39665    1.000
    Si912    Si       0.13391    0.61865    0.43595    1.000
    Si913    Si       0.16206    0.64658    0.37548    1.000
    N914     N        0.13421    0.65868    0.45544    1.000
    Si915    Si       0.12166    0.65621    0.49704    1.000
    Si916    Si       0.04994    0.63081    0.52268    1.000
    N917     N        0.04326    0.60768    0.55975    1.000
    N918     N        0.00427    0.63604    0.61175    1.000
    Si919    Si       0.00492    0.60667    0.58046    1.000
    N920     N        0.08890    0.62868    0.50158    1.000
    N921     N        0.01729    0.61589    0.49803    1.000
    Si922    Si       0.10900    0.62660    0.62021    1.000
    N923     N        0.07403    0.64915    0.62211    1.000
    Si924    Si       0.15625    0.62231    0.56152    1.000
    N925     N        0.18850    0.63923    0.58856    1.000
    Si926    Si       0.21987    0.61250    0.54336    1.000
    N927     N        0.12263    0.60749    0.58276    1.000
    N928     N        0.22934    0.65580    0.54311    1.000
    N929     N        0.14451    0.65397    0.53642    1.000
    N930     N        0.99632    0.63122    0.74163    1.000
    Si931    Si       0.03811    0.63139    0.63934    1.000
    Si932    Si       0.09720    0.64692    0.71783    1.000
    Si933    Si       0.03218    0.62814    0.71720    1.000
    N934     N        0.10077    0.60358    0.70589    1.000
    N935     N        0.03381    0.64972    0.67806    1.000
    N936     N        0.06193    0.64720    0.74109    1.000
    N937     N        0.14297    0.65163    0.63480    1.000
    Si938    Si       0.16396    0.64919    0.73144    1.000
    Si939    Si       0.21193    0.61439    0.74316    1.000
    N940     N        0.22970    0.62033    0.70316    1.000
    N941     N        0.17347    0.60594    0.72084    1.000
    Si942    Si       0.18213    0.63624    0.63291    1.000
    Si943    Si       0.05857    0.63971    0.78336    1.000
    N944     N        0.02502    0.63406    0.80886    1.000
    Si945    Si       0.01234    0.62280    0.85064    1.000
    N946     N        0.08665    0.60912    0.79821    1.000
    Si947    Si       0.11192    0.62194    0.83367    1.000
    N948     N        0.19547    0.62323    0.83162    1.000
    Si949    Si       0.23072    0.61701    0.80709    1.000
    N950     N        0.19878    0.65367    0.75592    1.000
    N951     N        0.12751    0.65522    0.75013    1.000
    N952     N        0.10100    0.62236    0.87589    1.000
    Si953    Si       0.04269    0.60439    0.91881    1.000
    N954     N        0.01516    0.60952    0.95265    1.000
    N955     N        0.03560    0.63341    0.88689    1.000
    N956     N        0.08125    0.61139    0.94293    1.000
    Si957    Si       0.03084    0.62948    0.98989    1.000
    Si958    Si       0.09201    0.65479    0.96036    1.000
    N959     N        0.12577    0.65124    0.98470    1.000
    N960     N        0.21295    0.65234    0.91918    1.000
    Si961    Si       0.15218    0.61898    0.97322    1.000
    N962     N        0.19249    0.62136    0.98737    1.000
    Si963    Si       0.18039    0.63167    0.89856    1.000
    N964     N        0.15121    0.62278    0.93037    1.000
    Si965    Si       0.11471    0.60428    0.91219    1.000
    Si966    Si       0.06471    0.68445    0.02546    1.000
    N967     N        0.10534    0.68125    0.04451    1.000
    N968     N        0.03833    0.67389    0.05853    1.000
    N969     N        0.09569    0.66590    0.10544    1.000
    Si970    Si       0.99701    0.68717    0.06190    1.000
    Si971    Si       0.11222    0.70180    0.08513    1.000
    Si972    Si       0.05590    0.65422    0.09572    1.000
    N973     N        0.22901    0.66733    0.08997    1.000
    Si974    Si       0.13645    0.67861    0.01553    1.000
    N975     N        0.15390    0.69448    0.09874    1.000
    Si976    Si       0.18340    0.66713    0.08038    1.000
    N977     N        0.17536    0.66853    0.03823    1.000
    N978     N        0.03141    0.67044    0.12773    1.000
    N979     N        0.00393    0.68783    0.22450    1.000
    N980     N        0.09960    0.66876    0.17333    1.000
    Si981    Si       0.04534    0.69724    0.22293    1.000
    N982     N        0.06627    0.66102    0.23490    1.000
    Si983    Si       0.09919    0.71252    0.16880    1.000
    Si984    Si       0.02692    0.71020    0.14541    1.000
    Si985    Si       0.15748    0.68203    0.19508    1.000
    N986     N        0.19693    0.67800    0.21096    1.000
    N987     N        0.13313    0.67206    0.22883    1.000
    N988     N        0.06344    0.68290    0.30331    1.000
    Si989    Si       0.05107    0.67551    0.34413    1.000
    N990     N        0.01275    0.69037    0.35781    1.000
    N991     N        0.14486    0.69018    0.29973    1.000
    Si992    Si       0.22563    0.67121    0.35981    1.000
    N993     N        0.23223    0.71124    0.25859    1.000
    N994     N        0.21785    0.71373    0.36883    1.000
    Si995    Si       0.14463    0.66082    0.27041    1.000
    N996     N        0.07969    0.68090    0.37706    1.000
    N997     N        0.99887    0.68014    0.47117    1.000
    Si998    Si       0.21265    0.70375    0.46165    1.000
    N999     N        0.22163    0.65937    0.46622    1.000
    N1000    N        0.16135    0.68445    0.39675    1.000
    Si1001   Si       0.14395    0.69731    0.43704    1.000
    N1002    N        0.05089    0.67238    0.52935    1.000
    Si1003   Si       0.08345    0.69052    0.61263    1.000
    N1004    N        0.09997    0.69570    0.57201    1.000
    Si1005   Si       0.05939    0.70849    0.55440    1.000
    Si1006   Si       0.02726    0.69304    0.49976    1.000
    N1007    N        0.11765    0.69995    0.50317    1.000
    N1008    N        0.21412    0.70367    0.59430    1.000
    Si1009   Si       0.13162    0.69496    0.54450    1.000
    Si1010   Si       0.22814    0.66266    0.58658    1.000
    N1011    N        0.23346    0.71064    0.49940    1.000
    Si1012   Si       0.02440    0.69180    0.67804    1.000
    N1013    N        0.10017    0.67675    0.68773    1.000
    N1014    N        0.00137    0.69850    0.71441    1.000
    Si1015   Si       0.21323    0.70776    0.63932    1.000
    N1016    N        0.21368    0.66202    0.64600    1.000
    N1017    N        0.22581    0.69773    0.69992    1.000
    Si1018   Si       0.13873    0.68454    0.66410    1.000
    N1019    N        0.16263    0.67843    0.70048    1.000
    Si1020   Si       0.23868    0.65855    0.68242    1.000
    Si1021   Si       0.05020    0.69794    0.82701    1.000
    N1022    N        0.07386    0.68069    0.79583    1.000
    N1023    N        0.00850    0.70138    0.83460    1.000
    N1024    N        0.07236    0.69067    0.86397    1.000
    Si1025   Si       0.11572    0.67681    0.78507    1.000
    N1026    N        0.19259    0.69407    0.81309    1.000
    Si1027   Si       0.20880    0.69195    0.77174    1.000
    Si1028   Si       0.17338    0.66017    0.83372    1.000
    N1029    N        0.13417    0.65565    0.81653    1.000
    N1030    N        0.10103    0.67144    0.92036    1.000
    N1031    N        0.05932    0.66236    0.98711    1.000
    N1032    N        0.00684    0.71314    0.96415    1.000
    Si1033   Si       0.07496    0.65501    0.88845    1.000
    N1034    N        0.16339    0.71100    0.93227    1.000
    Si1035   Si       0.20175    0.69063    0.93836    1.000
    Si1036   Si       0.13688    0.68982    0.90330    1.000
    N1037    N        0.21502    0.68854    0.98209    1.000
    N1038    N        0.16148    0.66402    0.87632    1.000
    N1039    N        0.23696    0.71560    0.92790    1.000
    N1040    N        0.06464    0.72374    0.00712    1.000
    Si1041   Si       0.10341    0.73878    0.02150    1.000
    Si1042   Si       0.99326    0.75045    0.10293    1.000
    N1043    N        0.03260    0.74299    0.11819    1.000
    N1044    N        0.99466    0.77116    0.06488    1.000
    N1045    N        0.11309    0.74032    0.06368    1.000
    N1046    N        0.15553    0.76302    0.11653    1.000
    N1047    N        0.13288    0.71759    0.99569    1.000
    N1048    N        0.05204    0.71706    0.18316    1.000
    Si1049   Si       0.07034    0.76334    0.12201    1.000
    Si1050   Si       0.06067    0.75818    0.19605    1.000
    N1051    N        0.09700    0.72821    0.12868    1.000
    N1052    N        0.10339    0.74570    0.19968    1.000
    N1053    N        0.98779    0.71295    0.16349    1.000
    Si1054   Si       0.16536    0.72332    0.12947    1.000
    Si1055   Si       0.22588    0.75830    0.15057    1.000
    Si1056   Si       0.21428    0.71732    0.21889    1.000
    N1057    N        0.14729    0.71625    0.16915    1.000
    N1058    N        0.22870    0.74895    0.19325    1.000
    Si1059   Si       0.14481    0.75040    0.19833    1.000
    N1060    N        0.17338    0.73598    0.22901    1.000
    N1061    N        0.20939    0.72440    0.13031    1.000
    N1062    N        0.05204    0.75035    0.31381    1.000
    Si1063   Si       0.00922    0.74977    0.31411    1.000
    N1064    N        0.99844    0.75429    0.35673    1.000
    Si1065   Si       0.07432    0.72245    0.28930    1.000
    N1066    N        0.05284    0.72927    0.25172    1.000
    Si1067   Si       0.03925    0.77174    0.25892    1.000
    N1068    N        0.11260    0.74250    0.28727    1.000
    N1069    N        0.14569    0.73350    0.35326    1.000
    N1070    N        0.18362    0.74743    0.29497    1.000
    Si1071   Si       0.14715    0.73029    0.31034    1.000
    Si1072   Si       0.22642    0.74411    0.28725    1.000
    N1073    N        0.08644    0.75512    0.37299    1.000
    Si1074   Si       0.08185    0.71797    0.39674    1.000
    Si1075   Si       0.00862    0.72280    0.38542    1.000
    N1076    N        0.00046    0.75359    0.46973    1.000
    Si1077   Si       0.04006    0.74671    0.44992    1.000
    N1078    N        0.04180    0.72852    0.41198    1.000
    N1079    N        0.05708    0.71754    0.47648    1.000
    N1080    N        0.17116    0.71689    0.46379    1.000
    Si1081   Si       0.12888    0.75934    0.38723    1.000
    N1082    N        0.17324    0.75704    0.40438    1.000
    N1083    N        0.12241    0.76341    0.48888    1.000
    N1084    N        0.11664    0.72778    0.42062    1.000
    Si1085   Si       0.17817    0.72089    0.38132    1.000
    N1086    N        0.07517    0.74553    0.53518    1.000
    Si1087   Si       0.03591    0.75852    0.61102    1.000
    Si1088   Si       0.00010    0.75516    0.51155    1.000
    N1089    N        0.04850    0.71785    0.59831    1.000
    N1090    N        0.01483    0.71997    0.53259    1.000
    N1091    N        0.99367    0.75962    0.59496    1.000
    Si1092   Si       0.09238    0.73396    0.49558    1.000
    Si1093   Si       0.23540    0.75267    0.51203    1.000
    N1094    N        0.16487    0.72621    0.54044    1.000
    N1095    N        0.17119    0.75770    0.59916    1.000
    Si1096   Si       0.19512    0.73541    0.56858    1.000
    N1097    N        0.19291    0.76917    0.50247    1.000
    N1098    N        0.23300    0.75307    0.55622    1.000
    Si1099   Si       0.15995    0.74169    0.49940    1.000
    N1100    N        0.00810    0.76937    0.71785    1.000
    N1101    N        0.05038    0.72714    0.67876    1.000
    Si1102   Si       0.09309    0.71819    0.67943    1.000
    Si1103   Si       0.00290    0.73294    0.74128    1.000
    Si1104   Si       0.03690    0.77189    0.68527    1.000
    N1105    N        0.10861    0.71325    0.63867    1.000
    N1106    N        0.18424    0.76221    0.70090    1.000
    N1107    N        0.23932    0.74028    0.65523    1.000
    Si1108   Si       0.14255    0.74259    0.63011    1.000
    N1109    N        0.11837    0.74734    0.69867    1.000
    N1110    N        0.17163    0.71646    0.65049    1.000
    Si1111   Si       0.18607    0.71538    0.70522    1.000
    N1112    N        0.06481    0.74084    0.82534    1.000
    Si1113   Si       0.07873    0.73869    0.78196    1.000
    N1114    N        0.04046    0.73503    0.76220    1.000
    Si1115   Si       0.08941    0.73217    0.86354    1.000
    N1116    N        0.11888    0.72252    0.77906    1.000
    Si1117   Si       0.20853    0.73517    0.82001    1.000
    N1118    N        0.17070    0.75529    0.81114    1.000
    Si1119   Si       0.15502    0.74577    0.77011    1.000
    N1120    N        0.22682    0.72760    0.85839    1.000
    N1121    N        0.23324    0.76610    0.79998    1.000
    N1122    N        0.18237    0.72014    0.74991    1.000
    N1123    N        0.01222    0.74322    0.89478    1.000
    Si1124   Si       0.03434    0.74278    0.97817    1.000
    N1125    N        0.05842    0.75900    0.94470    1.000
    Si1126   Si       0.04315    0.76999    0.90403    1.000
    N1127    N        0.07851    0.77193    0.87881    1.000
    N1128    N        0.00929    0.77535    0.99827    1.000
    N1129    N        0.12997    0.72540    0.87877    1.000
    Si1130   Si       0.23175    0.74554    0.89765    1.000
    Si1131   Si       0.15535    0.75347    0.90076    1.000
    N1132    N        0.19583    0.76657    0.90645    1.000
    N1133    N        0.12885    0.76755    0.93360    1.000
    Si1134   Si       0.15131    0.74059    0.96373    1.000
    N1135    N        0.09645    0.79261    0.09977    1.000
    N1136    N        0.10449    0.77649    0.00048    1.000
    N1137    N        0.99410    0.82773    0.11005    1.000
    Si1138   Si       0.00616    0.82088    0.99701    1.000
    Si1139   Si       0.98630    0.81520    0.06804    1.000
    N1140    N        0.15785    0.79188    0.05177    1.000
    Si1141   Si       0.13932    0.79974    0.01327    1.000
    Si1142   Si       0.20076    0.80243    0.04913    1.000
    N1143    N        0.22350    0.81625    0.08202    1.000
    Si1144   Si       0.13256    0.77397    0.08198    1.000
    N1145    N        0.22602    0.77344    0.02659    1.000
    N1146    N        0.06075    0.78306    0.15985    1.000
    N1147    N        0.09229    0.82054    0.20303    1.000
    Si1148   Si       0.00662    0.81333    0.20930    1.000
    Si1149   Si       0.06321    0.82481    0.17118    1.000
    N1150    N        0.02643    0.77631    0.21705    1.000
    N1151    N        0.23995    0.82098    0.20838    1.000
    N1152    N        0.15259    0.79068    0.18553    1.000
    Si1153   Si       0.16443    0.79527    0.14286    1.000
    Si1154   Si       0.22625    0.82936    0.16861    1.000
    Si1155   Si       0.13342    0.81347    0.21706    1.000
    N1156    N        0.20563    0.79696    0.14965    1.000
    N1157    N        0.03981    0.80926    0.35412    1.000
    N1158    N        0.07227    0.79850    0.26031    1.000
    N1159    N        0.10323    0.80141    0.32028    1.000
    Si1160   Si       0.07041    0.77993    0.33959    1.000
    N1161    N        0.00360    0.77950    0.28351    1.000
    Si1162   Si       0.10961    0.78542    0.28055    1.000
    N1163    N        0.14262    0.79280    0.25420    1.000
    N1164    N        0.23073    0.80794    0.31912    1.000
    Si1165   Si       0.12584    0.82625    0.34960    1.000
    Si1166   Si       0.23484    0.81484    0.27654    1.000
    N1167    N        0.22117    0.77886    0.25656    1.000
    Si1168   Si       0.17741    0.76916    0.25839    1.000
    Si1169   Si       0.00311    0.79467    0.37143    1.000
    Si1170   Si       0.03558    0.81571    0.43768    1.000
    Si1171   Si       0.09696    0.79816    0.47701    1.000
    N1172    N        0.00904    0.79158    0.41515    1.000
    N1173    N        0.06057    0.78502    0.45791    1.000
    N1174    N        0.11181    0.83128    0.45620    1.000
    N1175    N        0.13690    0.80168    0.38187    1.000
    Si1176   Si       0.17261    0.80190    0.40587    1.000
    N1177    N        0.17948    0.82109    0.44299    1.000
    N1178    N        0.20551    0.82139    0.38360    1.000
    N1179    N        0.08377    0.81539    0.51471    1.000
    Si1180   Si       0.09387    0.80041    0.60697    1.000
    N1181    N        0.02220    0.78882    0.52546    1.000
    Si1182   Si       0.06225    0.78559    0.54274    1.000
    N1183    N        0.06129    0.78435    0.58616    1.000
    Si1184   Si       0.00520    0.82302    0.50801    1.000
    N1185    N        0.12518    0.80683    0.57269    1.000
    Si1186   Si       0.16345    0.79901    0.59012    1.000
    Si1187   Si       0.18880    0.80803    0.51792    1.000
    N1188    N        0.19348    0.81089    0.56138    1.000
    Si1189   Si       0.23260    0.82234    0.57860    1.000
    N1190    N        0.15344    0.83139    0.50887    1.000
    N1191    N        0.16303    0.83154    0.62060    1.000
    Si1192   Si       0.12054    0.83171    0.53728    1.000
    N1193    N        0.22020    0.82976    0.49683    1.000
    N1194    N        0.05949    0.80007    0.71267    1.000
    Si1195   Si       0.01064    0.82195    0.63772    1.000
    N1196    N        0.03015    0.78340    0.64656    1.000
    N1197    N        0.23631    0.80663    0.67430    1.000
    Si1198   Si       0.21629    0.79127    0.71004    1.000
    N1199    N        0.20272    0.83003    0.72595    1.000
    Si1200   Si       0.14290    0.77945    0.70876    1.000
    N1201    N        0.12213    0.77954    0.63296    1.000
    Si1202   Si       0.13055    0.83087    0.65004    1.000
    N1203    N        0.14647    0.81998    0.68819    1.000
    N1204    N        0.01864    0.80418    0.77447    1.000
    N1205    N        0.00674    0.79040    0.83914    1.000
    Si1206   Si       0.04403    0.78728    0.80998    1.000
    N1207    N        0.06070    0.82117    0.83541    1.000
    Si1208   Si       0.02456    0.82279    0.86175    1.000
    N1209    N        0.07509    0.78228    0.77534    1.000
    Si1210   Si       0.09838    0.80525    0.85488    1.000
    Si1211   Si       0.11073    0.80666    0.77475    1.000
    Si1212   Si       0.04085    0.78038    0.74638    1.000
    N1213    N        0.12350    0.80453    0.81759    1.000
    Si1214   Si       0.16078    0.78943    0.83550    1.000
    N1215    N        0.19369    0.81741    0.82635    1.000
    Si1216   Si       0.23422    0.81046    0.80595    1.000
    N1217    N        0.14230    0.78419    0.75448    1.000
    N1218    N        0.02995    0.81059    0.90239    1.000
    N1219    N        0.09166    0.81942    0.94251    1.000
    Si1220   Si       0.09405    0.77942    0.95864    1.000
    N1221    N        0.16214    0.82821    0.93233    1.000
    N1222    N        0.17027    0.77483    0.98587    1.000
    Si1223   Si       0.21028    0.79105    0.98985    1.000
    Si1224   Si       0.12692    0.81088    0.91318    1.000
    Si1225   Si       0.20189    0.80824    0.91974    1.000
    N1226    N        0.14513    0.79049    0.87581    1.000
    N1227    N        0.23039    0.79866    0.95322    1.000
    N1228    N        0.03547    0.87767    0.08662    1.000
    Si1229   Si       0.02877    0.87355    0.04354    1.000
    N1230    N        0.06709    0.86623    0.02432    1.000
    Si1231   Si       0.00028    0.87031    0.11108    1.000
    Si1232   Si       0.07411    0.87989    0.10701    1.000
    N1233    N        0.10478    0.86121    0.08080    1.000
    N1234    N        0.00568    0.83741    0.03750    1.000
    Si1235   Si       0.11053    0.83026    0.11343    1.000
    Si1236   Si       0.11010    0.87130    0.03965    1.000
    N1237    N        0.12188    0.83877    0.01027    1.000
    Si1238   Si       0.18938    0.87126    0.01672    1.000
    N1239    N        0.17167    0.87938    0.05542    1.000
    N1240    N        0.19784    0.82911    0.01291    1.000
    N1241    N        0.07868    0.84777    0.13655    1.000
    N1242    N        0.03494    0.84468    0.19884    1.000
    Si1243   Si       0.00926    0.88285    0.19098    1.000
    N1244    N        0.09067    0.87575    0.23574    1.000
    Si1245   Si       0.06855    0.83639    0.23587    1.000
    N1246    N        0.00370    0.89254    0.14904    1.000
    N1247    N        0.14961    0.83422    0.13084    1.000
    Si1248   Si       0.19537    0.85790    0.22533    1.000
    N1249    N        0.19945    0.86556    0.17936    1.000
    N1250    N        0.15328    0.85123    0.22193    1.000
    Si1251   Si       0.16405    0.87113    0.15182    1.000
    Si1252   Si       0.12833    0.88623    0.21739    1.000
    Si1253   Si       0.02070    0.87465    0.30112    1.000
    N1254    N        0.03509    0.87818    0.34287    1.000
    N1255    N        0.04346    0.85776    0.26811    1.000
    N1256    N        0.09695    0.85535    0.36287    1.000
    N1257    N        0.98796    0.84602    0.30620    1.000
    N1258    N        0.21501    0.87638    0.32929    1.000
    N1259    N        0.20983    0.84705    0.26549    1.000
    N1260    N        0.16089    0.84484    0.33086    1.000
    Si1261   Si       0.21926    0.88752    0.28371    1.000
    Si1262   Si       0.20292    0.83494    0.34054    1.000
    Si1263   Si       0.05417    0.84897    0.36902    1.000
    Si1264   Si       0.08785    0.86492    0.43708    1.000
    N1265    N        0.05442    0.84565    0.41265    1.000
    N1266    N        0.06601    0.87847    0.47189    1.000
    N1267    N        0.00957    0.83417    0.46613    1.000
    N1268    N        0.16810    0.88279    0.46701    1.000
    N1269    N        0.12208    0.88241    0.41830    1.000
    Si1270   Si       0.21965    0.83263    0.45363    1.000
    Si1271   Si       0.15151    0.84349    0.46651    1.000
    N1272    N        0.23540    0.87118    0.44181    1.000
    N1273    N        0.02865    0.85471    0.52873    1.000
    N1274    N        0.10118    0.87167    0.53475    1.000
    Si1275   Si       0.01226    0.86478    0.56534    1.000
    Si1276   Si       0.06657    0.85767    0.50985    1.000
    N1277    N        0.01157    0.83512    0.59702    1.000
    N1278    N        0.22458    0.86145    0.59635    1.000
    Si1279   Si       0.06735    0.86793    0.65441    1.000
    Si1280   Si       0.00393    0.86857    0.69700    1.000
    N1281    N        0.02767    0.86498    0.73402    1.000
    N1282    N        0.02621    0.85284    0.66297    1.000
    N1283    N        0.08524    0.86486    0.69399    1.000
    Si1284   Si       0.06557    0.84079    0.72346    1.000
    N1285    N        0.08906    0.83436    0.63330    1.000
    Si1286   Si       0.12128    0.89151    0.69492    1.000
    Si1287   Si       0.19038    0.86569    0.62269    1.000
    N1288    N        0.20366    0.86629    0.66579    1.000
    Si1289   Si       0.23177    0.85630    0.74539    1.000
    N1290    N        0.13213    0.87795    0.65385    1.000
    N1291    N        0.15594    0.88184    0.71908    1.000
    Si1292   Si       0.17669    0.84900    0.69757    1.000
    N1293    N        0.02599    0.87308    0.79385    1.000
    Si1294   Si       0.05560    0.86422    0.82665    1.000
    N1295    N        0.02470    0.86724    0.85744    1.000
    N1296    N        0.09370    0.84382    0.75804    1.000
    Si1297   Si       0.00490    0.84502    0.76666    1.000
    Si1298   Si       0.10473    0.88470    0.77352    1.000
    N1299    N        0.09684    0.87856    0.81622    1.000
    Si1300   Si       0.99607    0.88434    0.82512    1.000
    Si1301   Si       0.19419    0.85209    0.85228    1.000
    N1302    N        0.15717    0.87693    0.85100    1.000
    N1303    N        0.22590    0.87321    0.83420    1.000
    Si1304   Si       0.05097    0.83285    0.93464    1.000
    N1305    N        0.09495    0.88221    0.96340    1.000
    N1306    N        0.04191    0.87466    0.92407    1.000
    Si1307   Si       0.01053    0.88556    0.89590    1.000
    N1308    N        0.10945    0.83891    0.88186    1.000
    Si1309   Si       0.08341    0.84780    0.98690    1.000
    N1310    N        0.04259    0.83092    0.97712    1.000
    N1311    N        0.21784    0.87261    0.94471    1.000
    Si1312   Si       0.17611    0.86858    0.94450    1.000
    N1313    N        0.16358    0.88518    0.98236    1.000
    N1314    N        0.21144    0.83934    0.89061    1.000
    Si1315   Si       0.13092    0.87585    0.88466    1.000
    N1316    N        0.01185    0.90789    0.02157    1.000
    N1317    N        0.05426    0.94084    0.06730    1.000
    Si1318   Si       0.08751    0.94304    0.03940    1.000
    N1319    N        0.11516    0.91091    0.02524    1.000
    Si1320   Si       0.18497    0.91218    0.08124    1.000
    N1321    N        0.22794    0.92654    0.07652    1.000
    N1322    N        0.22235    0.89968    0.01002    1.000
    N1323    N        0.08644    0.91649    0.12582    1.000
    N1324    N        0.03572    0.90877    0.21440    1.000
    N1325    N        0.08970    0.94458    0.19412    1.000
    Si1326   Si       0.99277    0.93433    0.13939    1.000
    Si1327   Si       0.10984    0.92685    0.16194    1.000
    Si1328   Si       0.04535    0.94754    0.19788    1.000
    Si1329   Si       0.17998    0.94242    0.14550    1.000
    N1330    N        0.17799    0.90501    0.12352    1.000
    N1331    N        0.14111    0.92389    0.23430    1.000
    Si1332   Si       0.22433    0.90163    0.18804    1.000
    N1333    N        0.20783    0.89941    0.23230    1.000
    N1334    N        0.20207    0.93781    0.18272    1.000
    N1335    N        0.13001    0.88996    0.17334    1.000
    Si1336   Si       0.04390    0.91850    0.35646    1.000
    N1337    N        0.08015    0.93862    0.26377    1.000
    N1338    N        0.02108    0.91460    0.28129    1.000
    Si1339   Si       0.10239    0.93383    0.30685    1.000
    Si1340   Si       0.05463    0.89862    0.25393    1.000
    N1341    N        0.06562    0.94187    0.32800    1.000
    N1342    N        0.18145    0.92913    0.35529    1.000
    Si1343   Si       0.22185    0.91183    0.35367    1.000
    N1344    N        0.18112    0.91515    0.29136    1.000
    N1345    N        0.12409    0.90435    0.33258    1.000
    Si1346   Si       0.18059    0.92940    0.24921    1.000
    Si1347   Si       0.16441    0.88838    0.32365    1.000
    N1348    N        0.00876    0.93466    0.37147    1.000
    Si1349   Si       0.99484    0.93482    0.41344    1.000
    N1350    N        0.00722    0.90053    0.43741    1.000
    Si1351   Si       0.04029    0.91395    0.46518    1.000
    N1352    N        0.07291    0.91550    0.38879    1.000
    N1353    N        0.07297    0.94053    0.45225    1.000
    Si1354   Si       0.11123    0.89537    0.37629    1.000
    Si1355   Si       0.08833    0.94916    0.41252    1.000
    Si1356   Si       0.14698    0.91365    0.43992    1.000
    N1357    N        0.20210    0.93606    0.49254    1.000
    Si1358   Si       0.22786    0.91287    0.43012    1.000
    N1359    N        0.12975    0.94283    0.40815    1.000
    N1360    N        0.19060    0.93406    0.42695    1.000
    N1361    N        0.13543    0.93369    0.47652    1.000
    N1362    N        0.10487    0.91048    0.59340    1.000
    N1363    N        0.03169    0.90046    0.58036    1.000
    Si1364   Si       0.06287    0.92041    0.60391    1.000
    N1365    N        0.09415    0.94287    0.52998    1.000
    Si1366   Si       0.11424    0.90921    0.54983    1.000
    N1367    N        0.01883    0.93486    0.49530    1.000
    Si1368   Si       0.99181    0.92136    0.58229    1.000
    Si1369   Si       0.23311    0.93062    0.52327    1.000
    N1370    N        0.17176    0.90030    0.60358    1.000
    N1371    N        0.15600    0.91248    0.54020    1.000
    Si1372   Si       0.18067    0.92828    0.57158    1.000
    N1373    N        0.22327    0.93273    0.56633    1.000
    Si1374   Si       0.16732    0.91278    0.49805    1.000
    N1375    N        0.99996    0.93258    0.62507    1.000
    Si1376   Si       0.02055    0.92922    0.66164    1.000
    N1377    N        0.05685    0.90756    0.64478    1.000
    N1378    N        0.11103    0.93202    0.70118    1.000
    N1379    N        0.99110    0.91125    0.69035    1.000
    Si1380   Si       0.09484    0.94878    0.73857    1.000
    Si1381   Si       0.13527    0.90861    0.62267    1.000
    N1382    N        0.14397    0.94508    0.64458    1.000
    N1383    N        0.18183    0.94550    0.73614    1.000
    Si1384   Si       0.03738    0.90203    0.75836    1.000
    N1385    N        0.01403    0.93808    0.75498    1.000
    N1386    N        0.07796    0.91545    0.75810    1.000
    N1387    N        0.99597    0.92701    0.82434    1.000
    Si1388   Si       0.98919    0.94980    0.85993    1.000
    N1389    N        0.22942    0.93784    0.82558    1.000
    N1390    N        0.12675    0.94289    0.83160    1.000
    Si1391   Si       0.13508    0.90159    0.82255    1.000
    N1392    N        0.14393    0.89981    0.78068    1.000
    Si1393   Si       0.23307    0.90117    0.80182    1.000
    Si1394   Si       0.17353    0.90667    0.75053    1.000
    N1395    N        0.21216    0.88991    0.76352    1.000
    Si1396   Si       0.10638    0.94674    0.87258    1.000
    N1397    N        0.06197    0.94131    0.93268    1.000
    N1398    N        0.00818    0.92906    0.89258    1.000
    Si1399   Si       0.07576    0.90003    0.92881    1.000
    N1400    N        0.09743    0.90702    0.88767    1.000
    N1401    N        0.15420    0.89493    0.91793    1.000
    N1402    N        0.12402    0.94092    0.96028    1.000
    Si1403   Si       0.12568    0.90501    0.98413    1.000
    Si1404   Si       0.15721    0.93780    0.93147    1.000
    N1405    N        0.20011    0.93751    0.94530    1.000
    Si1406   Si       0.22656    0.90933    0.96728    1.000
    N1407    N        0.01545    0.98309    0.03529    1.000
    N1408    N        0.02015    0.99524    0.10305    1.000
    Si1409   Si       0.01665    0.96220    0.07439    1.000
    N1410    N        0.10794    0.96941    0.06842    1.000
    Si1411   Si       0.08116    0.95177    0.10033    1.000
    N1412    N        0.06823    0.95382    0.00066    1.000
    Si1413   Si       0.02439    0.94883    0.00969    1.000
    Si1414   Si       0.14364    0.99112    0.07468    1.000
    Si1415   Si       0.21065    0.96743    0.08186    1.000
    N1416    N        0.17079    0.95335    0.07346    1.000
    N1417    N        0.02415    0.95615    0.16089    1.000
    N1418    N        0.08077    0.98373    0.13019    1.000
    N1419    N        0.03807    0.97766    0.22846    1.000
    Si1420   Si       0.03982    0.99238    0.14417    1.000
    Si1421   Si       0.10814    0.95162    0.23290    1.000
    N1422    N        0.20500    0.97190    0.12473    1.000
    N1423    N        0.13955    0.95586    0.14888    1.000
    N1424    N        0.12188    0.99120    0.23808    1.000
    Si1425   Si       0.22141    0.96661    0.20848    1.000
    Si1426   Si       0.11981    0.99323    0.14282    1.000
    Si1427   Si       0.23131    0.99440    0.14737    1.000
    N1428    N        0.21708    0.00425    0.18703    1.000
    N1429    N        0.01319    0.97723    0.29389    1.000
    Si1430   Si       0.05120    0.97089    0.27286    1.000
    N1431    N        0.07488    0.00621    0.28533    1.000
    Si1432   Si       0.99027    0.00562    0.31532    1.000
    Si1433   Si       0.11842    0.99942    0.28139    1.000
    Si1434   Si       0.21254    0.99607    0.27869    1.000
    N1435    N        0.19443    0.98565    0.31738    1.000
    N1436    N        0.13314    0.96547    0.30218    1.000
    N1437    N        0.20084    0.96725    0.24761    1.000
    Si1438   Si       0.17153    0.94992    0.31420    1.000
    N1439    N        0.00382    0.96957    0.43855    1.000
    Si1440   Si       0.03063    0.99846    0.42130    1.000
    N1441    N        0.06948    0.98905    0.40210    1.000
    N1442    N        0.09864    0.99658    0.48419    1.000
    Si1443   Si       0.09812    0.95362    0.48753    1.000
    Si1444   Si       0.16979    0.95161    0.39217    1.000
    Si1445   Si       0.19542    0.96579    0.45994    1.000
    N1446    N        0.17428    0.99401    0.38757    1.000
    N1447    N        0.16424    0.99617    0.45732    1.000
    N1448    N        0.23070    0.99207    0.46174    1.000
    N1449    N        0.04992    0.99347    0.52948    1.000
    Si1450   Si       0.01356    0.96997    0.52168    1.000
    Si1451   Si       0.07880    0.97449    0.55503    1.000
    N1452    N        0.06247    0.96409    0.59409    1.000
    Si1453   Si       0.08028    0.99806    0.61479    1.000
    N1454    N        0.10356    0.00730    0.57878    1.000
    Si1455   Si       0.14676    0.99952    0.56703    1.000
    N1456    N        0.16579    0.96717    0.58785    1.000
    N1457    N        0.14907    0.98751    0.52559    1.000
    N1458    N        0.07877    0.98877    0.72281    1.000
    Si1459   Si       0.05766    0.99509    0.68723    1.000
    N1460    N        0.08534    0.98540    0.65593    1.000
    N1461    N        0.02726    0.96358    0.68547    1.000
    Si1462   Si       0.00347    0.96344    0.72250    1.000
    N1463    N        0.01342    0.00575    0.73767    1.000
    N1464    N        0.22278    0.96042    0.62595    1.000
    Si1465   Si       0.12051    0.96396    0.67439    1.000
    Si1466   Si       0.17871    0.96658    0.62978    1.000
    N1467    N        0.14909    0.99075    0.69263    1.000
    N1468    N        0.20207    0.00754    0.73520    1.000
    Si1469   Si       0.16106    0.98489    0.73548    1.000
    Si1470   Si       0.22078    0.96688    0.73165    1.000
    N1471    N        0.02607    0.98462    0.80316    1.000
    Si1472   Si       0.04401    0.99428    0.84449    1.000
    Si1473   Si       0.99732    0.95573    0.79103    1.000
    N1474    N        0.00793    0.98972    0.86830    1.000
    N1475    N        0.12569    0.97252    0.76189    1.000
    Si1476   Si       0.14104    0.97211    0.80295    1.000
    N1477    N        0.18189    0.98161    0.79833    1.000
    Si1478   Si       0.22647    0.97437    0.80264    1.000
    Si1479   Si       0.23032    0.00369    0.86797    1.000
    N1480    N        0.23817    0.00884    0.82589    1.000
    N1481    N        0.18723    0.00959    0.86596    1.000
    N1482    N        0.06853    0.96801    0.87036    1.000
    N1483    N        0.07836    0.99956    0.94700    1.000
    N1484    N        0.01308    0.99096    0.92986    1.000
    Si1485   Si       0.08666    0.96110    0.96349    1.000
    Si1486   Si       0.03655    0.96059    0.90445    1.000
    N1487    N        0.99046    0.95127    0.98029    1.000
    N1488    N        0.23300    0.96480    0.88866    1.000
    Si1489   Si       0.15793    0.00041    0.89487    1.000
    N1490    N        0.18348    0.99784    0.93074    1.000
    Si1491   Si       0.21897    0.97317    0.93108    1.000
    N1492    N        0.14105    0.96170    0.89725    1.000
    Si1493   Si       0.35213    0.02714    0.02902    1.000
    N1494    N        0.32365    0.05255    0.05064    1.000
    Si1495   Si       0.24866    0.02310    0.08432    1.000
    N1496    N        0.26991    0.02306    0.01806    1.000
    Si1497   Si       0.28450    0.06041    0.03454    1.000
    N1498    N        0.25879    0.06517    0.07254    1.000
    N1499    N        0.38858    0.01416    0.04629    1.000
    Si1500   Si       0.40322    0.04585    0.07443    1.000
    Si1501   Si       0.45939    0.02373    0.03097    1.000
    N1502    N        0.44376    0.05515    0.05691    1.000
    N1503    N        0.40533    0.02178    0.10920    1.000
    N1504    N        0.44136    0.02724    0.99270    1.000
    N1505    N        0.23970    0.03158    0.12499    1.000
    N1506    N        0.31258    0.05415    0.12156    1.000
    Si1507   Si       0.32368    0.02867    0.15411    1.000
    N1508    N        0.29782    0.02196    0.18691    1.000
    Si1509   Si       0.27592    0.05148    0.20996    1.000
    N1510    N        0.36421    0.03719    0.16720    1.000
    N1511    N        0.43165    0.02637    0.17206    1.000
    N1512    N        0.40998    0.03384    0.22944    1.000
    Si1513   Si       0.39744    0.01394    0.15095    1.000
    Si1514   Si       0.46427    0.05265    0.16930    1.000
    Si1515   Si       0.38412    0.05393    0.20196    1.000
    N1516    N        0.48054    0.03515    0.20695    1.000
    Si1517   Si       0.25573    0.04775    0.35853    1.000
    N1518    N        0.26509    0.05055    0.31508    1.000
    N1519    N        0.33005    0.02786    0.28549    1.000
    Si1520   Si       0.28967    0.01751    0.29789    1.000
    Si1521   Si       0.24692    0.05884    0.27360    1.000
    Si1522   Si       0.32172    0.06183    0.25810    1.000
    N1523    N        0.28217    0.04591    0.25183    1.000
    Si1524   Si       0.42854    0.03275    0.26799    1.000
    N1525    N        0.39681    0.02316    0.29667    1.000
    Si1526   Si       0.40729    0.05999    0.31539    1.000
    N1527    N        0.42361    0.06317    0.35486    1.000
    N1528    N        0.31917    0.04021    0.43837    1.000
    Si1529   Si       0.32788    0.03556    0.39411    1.000
    N1530    N        0.29314    0.06114    0.37650    1.000
    N1531    N        0.25159    0.06280    0.45205    1.000
    N1532    N        0.36138    0.05621    0.37677    1.000
    Si1533   Si       0.33742    0.01018    0.46418    1.000
    Si1534   Si       0.45927    0.05544    0.41851    1.000
    N1535    N        0.47373    0.05150    0.45964    1.000
    N1536    N        0.41729    0.03933    0.42235    1.000
    N1537    N        0.47418    0.02487    0.38979    1.000
    Si1538   Si       0.40080    0.03660    0.38206    1.000
    N1539    N        0.28374    0.02072    0.53315    1.000
    Si1540   Si       0.31542    0.04734    0.52234    1.000
    N1541    N        0.34931    0.02352    0.50333    1.000
    Si1542   Si       0.32690    0.05619    0.60086    1.000
    Si1543   Si       0.24449    0.03669    0.54535    1.000
    N1544    N        0.33481    0.01631    0.61702    1.000
    N1545    N        0.33262    0.06539    0.56031    1.000
    N1546    N        0.28665    0.05722    0.61826    1.000
    N1547    N        0.39686    0.04558    0.54919    1.000
    N1548    N        0.46420    0.04829    0.52686    1.000
    N1549    N        0.44310    0.03593    0.59619    1.000
    Si1550   Si       0.43678    0.05850    0.55784    1.000
    Si1551   Si       0.48015    0.03661    0.61496    1.000
    Si1552   Si       0.38709    0.01421    0.52264    1.000
    N1553    N        0.41976    0.01103    0.49320    1.000
    N1554    N        0.32320    0.02815    0.67742    1.000
    N1555    N        0.26250    0.04489    0.68253    1.000
    Si1556   Si       0.28909    0.02934    0.65020    1.000
    Si1557   Si       0.29434    0.03587    0.71175    1.000
    Si1558   Si       0.36002    0.04110    0.65434    1.000
    Si1559   Si       0.48405    0.05369    0.68372    1.000
    N1560    N        0.44397    0.04606    0.70349    1.000
    Si1561   Si       0.40641    0.02653    0.69286    1.000
    N1562    N        0.38181    0.06247    0.69067    1.000
    N1563    N        0.39818    0.01478    0.65031    1.000
    Si1564   Si       0.32452    0.04321    0.85142    1.000
    N1565    N        0.29324    0.05467    0.82073    1.000
    Si1566   Si       0.24945    0.05050    0.82204    1.000
    N1567    N        0.23587    0.06690    0.86053    1.000
    Si1568   Si       0.40969    0.02744    0.79045    1.000
    Si1569   Si       0.46800    0.04949    0.84697    1.000
    N1570    N        0.43227    0.02189    0.82587    1.000
    Si1571   Si       0.34538    0.03412    0.95783    1.000
    N1572    N        0.26034    0.02287    0.89465    1.000
    N1573    N        0.30335    0.03703    0.95410    1.000
    N1574    N        0.31118    0.06374    0.88785    1.000
    Si1575   Si       0.26679    0.06664    0.89090    1.000
    N1576    N        0.35692    0.05538    0.99400    1.000
    N1577    N        0.46911    0.01199    0.87413    1.000
    N1578    N        0.37335    0.04238    0.92397    1.000
    Si1579   Si       0.45150    0.02800    0.95081    1.000
    N1580    N        0.31103    0.10890    0.08840    1.000
    Si1581   Si       0.28081    0.08166    0.10939    1.000
    N1582    N        0.27322    0.08834    0.00335    1.000
    Si1583   Si       0.33590    0.07239    0.08649    1.000
    Si1584   Si       0.25044    0.12392    0.00858    1.000
    N1585    N        0.37673    0.08022    0.08054    1.000
    Si1586   Si       0.43940    0.09910    0.05396    1.000
    N1587    N        0.40944    0.09997    0.02308    1.000
    N1588    N        0.47831    0.11360    0.04153    1.000
    Si1589   Si       0.38580    0.12220    0.09013    1.000
    Si1590   Si       0.37629    0.09393    0.99736    1.000
    N1591    N        0.25377    0.09533    0.14004    1.000
    Si1592   Si       0.25129    0.10733    0.18206    1.000
    N1593    N        0.28840    0.09428    0.20459    1.000
    N1594    N        0.35195    0.07106    0.22817    1.000
    Si1595   Si       0.41814    0.11400    0.15416    1.000
    N1596    N        0.40107    0.09488    0.19083    1.000
    Si1597   Si       0.36908    0.11031    0.21533    1.000
    N1598    N        0.38104    0.12519    0.13329    1.000
    N1599    N        0.45515    0.08908    0.14403    1.000
    N1600    N        0.31629    0.09951    0.27714    1.000
    N1601    N        0.24591    0.10201    0.27463    1.000
    Si1602   Si       0.35406    0.11419    0.28787    1.000
    N1603    N        0.32625    0.11781    0.36459    1.000
    Si1604   Si       0.36162    0.09486    0.35804    1.000
    N1605    N        0.37282    0.08712    0.31526    1.000
    Si1606   Si       0.47704    0.08957    0.31459    1.000
    N1607    N        0.46171    0.12113    0.34093    1.000
    Si1608   Si       0.43373    0.10218    0.36860    1.000
    N1609    N        0.39547    0.12204    0.36515    1.000
    N1610    N        0.44536    0.06582    0.29264    1.000
    N1611    N        0.37876    0.12833    0.25403    1.000
    Si1612   Si       0.29362    0.07356    0.45056    1.000
    N1613    N        0.29476    0.10954    0.42783    1.000
    Si1614   Si       0.28696    0.10495    0.38460    1.000
    N1615    N        0.30773    0.07916    0.49250    1.000
    Si1616   Si       0.42808    0.11909    0.44200    1.000
    N1617    N        0.42169    0.09950    0.48061    1.000
    Si1618   Si       0.45855    0.07699    0.49059    1.000
    N1619    N        0.44612    0.09604    0.41000    1.000
    Si1620   Si       0.25452    0.11348    0.53924    1.000
    Si1621   Si       0.25257    0.08151    0.60678    1.000
    Si1622   Si       0.32419    0.11835    0.50855    1.000
    N1623    N        0.25304    0.07586    0.56240    1.000
    N1624    N        0.36414    0.11063    0.52245    1.000
    Si1625   Si       0.37285    0.08451    0.55568    1.000
    N1626    N        0.42627    0.10058    0.54363    1.000
    N1627    N        0.38529    0.11036    0.58906    1.000
    N1628    N        0.46177    0.11037    0.59739    1.000
    N1629    N        0.48763    0.10697    0.49956    1.000
    N1630    N        0.34519    0.11843    0.70510    1.000
    N1631    N        0.35112    0.07545    0.63071    1.000
    Si1632   Si       0.31845    0.10768    0.73719    1.000
    N1633    N        0.29743    0.06918    0.74002    1.000
    N1634    N        0.25766    0.12088    0.62629    1.000
    Si1635   Si       0.45104    0.08233    0.72713    1.000
    N1636    N        0.39437    0.12586    0.66028    1.000
    Si1637   Si       0.36713    0.11449    0.62796    1.000
    Si1638   Si       0.38723    0.10466    0.69644    1.000
    N1639    N        0.41962    0.11122    0.72407    1.000
    Si1640   Si       0.48652    0.11082    0.63220    1.000
    N1641    N        0.33140    0.10326    0.78014    1.000
    Si1642   Si       0.29060    0.07828    0.78416    1.000
    N1643    N        0.24699    0.07837    0.78804    1.000
    N1644    N        0.35710    0.07041    0.83952    1.000
    Si1645   Si       0.36721    0.09235    0.80388    1.000
    Si1646   Si       0.36822    0.10484    0.86352    1.000
    N1647    N        0.44850    0.08843    0.83664    1.000
    Si1648   Si       0.43801    0.09322    0.79622    1.000
    N1649    N        0.46559    0.07981    0.76671    1.000
    N1650    N        0.40058    0.06970    0.78810    1.000
    Si1651   Si       0.31178    0.10538    0.90472    1.000
    N1652    N        0.30974    0.10599    0.94877    1.000
    N1653    N        0.25180    0.07374    0.93382    1.000
    Si1654   Si       0.28235    0.07423    0.96161    1.000
    N1655    N        0.27472    0.11225    0.88495    1.000
    Si1656   Si       0.44142    0.11485    0.87026    1.000
    N1657    N        0.39159    0.10272    0.95660    1.000
    Si1658   Si       0.40214    0.07600    0.92593    1.000
    Si1659   Si       0.46698    0.10253    0.93735    1.000
    N1660    N        0.40446    0.09682    0.88586    1.000
    N1661    N        0.44513    0.06675    0.93129    1.000
    Si1662   Si       0.31825    0.15214    0.08484    1.000
    N1663    N        0.28622    0.17699    0.06716    1.000
    N1664    N        0.36102    0.15125    0.06880    1.000
    Si1665   Si       0.24424    0.16755    0.06976    1.000
    N1666    N        0.24400    0.15984    0.11558    1.000
    N1667    N        0.34501    0.12578    0.00654    1.000
    N1668    N        0.42843    0.12639    0.08619    1.000
    Si1669   Si       0.36596    0.16065    0.02475    1.000
    Si1670   Si       0.45729    0.15100    0.11096    1.000
    Si1671   Si       0.47529    0.13763    0.00448    1.000
    N1672    N        0.46731    0.17699    0.02041    1.000
    N1673    N        0.40219    0.16525    0.99666    1.000
    N1674    N        0.31768    0.16072    0.12830    1.000
    N1675    N        0.34395    0.13464    0.18980    1.000
    N1676    N        0.27499    0.14618    0.17808    1.000
    Si1677   Si       0.35280    0.15359    0.15199    1.000
    Si1678   Si       0.30445    0.13454    0.20684    1.000
    Si1679   Si       0.27816    0.16943    0.14072    1.000
    N1680    N        0.29315    0.15625    0.24509    1.000
    Si1681   Si       0.41374    0.15382    0.24514    1.000
    N1682    N        0.43805    0.15400    0.15110    1.000
    N1683    N        0.44981    0.13020    0.24089    1.000
    N1684    N        0.40320    0.17584    0.20881    1.000
    N1685    N        0.26255    0.15873    0.29620    1.000
    Si1686   Si       0.33486    0.15924    0.34801    1.000
    N1687    N        0.35034    0.15383    0.30924    1.000
    Si1688   Si       0.25312    0.18088    0.25654    1.000
    N1689    N        0.29715    0.17955    0.34676    1.000
    N1690    N        0.25403    0.13492    0.37491    1.000
    Si1691   Si       0.28328    0.12630    0.27524    1.000
    Si1692   Si       0.47930    0.16282    0.34725    1.000
    N1693    N        0.41723    0.17489    0.28188    1.000
    Si1694   Si       0.37709    0.18260    0.29542    1.000
    Si1695   Si       0.26865    0.17491    0.37838    1.000
    N1696    N        0.26642    0.16937    0.47248    1.000
    Si1697   Si       0.29753    0.14950    0.44819    1.000
    N1698    N        0.29760    0.17681    0.41425    1.000
    N1699    N        0.33252    0.14240    0.47336    1.000
    N1700    N        0.35503    0.17786    0.38164    1.000
    N1701    N        0.45515    0.15128    0.44912    1.000
    Si1702   Si       0.45773    0.18055    0.41658    1.000
    Si1703   Si       0.39072    0.15573    0.39150    1.000
    N1704    N        0.40109    0.16443    0.49197    1.000
    Si1705   Si       0.48715    0.14428    0.47758    1.000
    Si1706   Si       0.37064    0.16382    0.46050    1.000
    N1707    N        0.38942    0.13682    0.43124    1.000
    Si1708   Si       0.30282    0.17221    0.55399    1.000
    N1709    N        0.28304    0.17383    0.59214    1.000
    N1710    N        0.29327    0.13142    0.53833    1.000
    N1711    N        0.34307    0.18172    0.54825    1.000
    N1712    N        0.42802    0.16106    0.54622    1.000
    N1713    N        0.42261    0.16193    0.60953    1.000
    N1714    N        0.48035    0.17956    0.50302    1.000
    Si1715   Si       0.40452    0.12579    0.51207    1.000
    Si1716   Si       0.42536    0.12802    0.57926    1.000
    N1717    N        0.28981    0.15538    0.67210    1.000
    Si1718   Si       0.27571    0.16978    0.71192    1.000
    Si1719   Si       0.33539    0.14907    0.67702    1.000
    N1720    N        0.33762    0.14589    0.63422    1.000
    Si1721   Si       0.30145    0.16972    0.63074    1.000
    N1722    N        0.29044    0.14214    0.74184    1.000
    N1723    N        0.39721    0.18115    0.74293    1.000
    N1724    N        0.46767    0.15329    0.73282    1.000
    Si1725   Si       0.48808    0.13342    0.69957    1.000
    N1726    N        0.46786    0.13564    0.66135    1.000
    Si1727   Si       0.42879    0.15258    0.65063    1.000
    Si1728   Si       0.42530    0.14840    0.74724    1.000
    Si1729   Si       0.32813    0.14150    0.80275    1.000
    Si1730   Si       0.26667    0.14102    0.85047    1.000
    Si1731   Si       0.26182    0.15118    0.77551    1.000
    N1732    N        0.28438    0.13921    0.81009    1.000
    N1733    N        0.33816    0.18017    0.79071    1.000
    N1734    N        0.27960    0.18011    0.86391    1.000
    Si1735   Si       0.40727    0.15421    0.82283    1.000
    N1736    N        0.42792    0.15540    0.85936    1.000
    N1737    N        0.42656    0.13566    0.78897    1.000
    N1738    N        0.37017    0.13102    0.82570    1.000
    N1739    N        0.34526    0.12815    0.89297    1.000
    N1740    N        0.33319    0.16828    0.95347    1.000
    Si1741   Si       0.31438    0.13542    0.97911    1.000
    Si1742   Si       0.35713    0.16291    0.91477    1.000
    N1743    N        0.27648    0.15415    0.99164    1.000
    N1744    N        0.23982    0.18341    0.93344    1.000
    N1745    N        0.45265    0.13189    0.96693    1.000
    Si1746   Si       0.40947    0.14345    0.95956    1.000
    N1747    N        0.39961    0.16348    0.92399    1.000
    N1748    N        0.47182    0.12335    0.89951    1.000
    N1749    N        0.34322    0.19660    0.01487    1.000
    Si1750   Si       0.34567    0.23174    0.03700    1.000
    N1751    N        0.36596    0.22679    0.07430    1.000
    N1752    N        0.42527    0.21617    0.04368    1.000
    Si1753   Si       0.46468    0.20191    0.05601    1.000
    Si1754   Si       0.43086    0.19621    0.00372    1.000
    N1755    N        0.46095    0.19294    0.09740    1.000
    Si1756   Si       0.37084    0.22852    0.11917    1.000
    N1757    N        0.41527    0.23874    0.10923    1.000
    N1758    N        0.27043    0.21095    0.15835    1.000
    N1759    N        0.32890    0.20423    0.20571    1.000
    Si1760   Si       0.29140    0.22460    0.19340    1.000
    N1761    N        0.27004    0.21325    0.23088    1.000
    N1762    N        0.32366    0.24492    0.12206    1.000
    Si1763   Si       0.45183    0.22464    0.12796    1.000
    N1764    N        0.37604    0.19224    0.14800    1.000
    Si1765   Si       0.37105    0.20554    0.21823    1.000
    N1766    N        0.43446    0.22247    0.16921    1.000
    Si1767   Si       0.41356    0.18462    0.16879    1.000
    N1768    N        0.29983    0.21516    0.28756    1.000
    Si1769   Si       0.26806    0.19680    0.31769    1.000
    N1770    N        0.35779    0.19756    0.25917    1.000
    N1771    N        0.24262    0.20351    0.35411    1.000
    Si1772   Si       0.31396    0.19666    0.24995    1.000
    N1773    N        0.47547    0.21686    0.27378    1.000
    Si1774   Si       0.42123    0.21244    0.35559    1.000
    N1775    N        0.38600    0.20849    0.32986    1.000
    N1776    N        0.45718    0.20031    0.33264    1.000
    Si1777   Si       0.43788    0.21157    0.29294    1.000
    Si1778   Si       0.34857    0.23148    0.47241    1.000
    N1779    N        0.35897    0.20206    0.44414    1.000
    N1780    N        0.31800    0.23860    0.39389    1.000
    Si1781   Si       0.33347    0.20190    0.40833    1.000
    N1782    N        0.30605    0.23127    0.47502    1.000
    Si1783   Si       0.27359    0.20779    0.49191    1.000
    N1784    N        0.47385    0.21936    0.43002    1.000
    N1785    N        0.42284    0.18537    0.39112    1.000
    N1786    N        0.28047    0.20258    0.53333    1.000
    Si1787   Si       0.24602    0.23003    0.54484    1.000
    Si1788   Si       0.35950    0.22017    0.55107    1.000
    Si1789   Si       0.43725    0.18444    0.50839    1.000
    N1790    N        0.37016    0.23462    0.51165    1.000
    N1791    N        0.45849    0.21347    0.58209    1.000
    N1792    N        0.39294    0.22164    0.57965    1.000
    N1793    N        0.43802    0.22750    0.51775    1.000
    Si1794   Si       0.42356    0.18959    0.57870    1.000
    Si1795   Si       0.47369    0.23062    0.61713    1.000
    N1796    N        0.31274    0.21134    0.63942    1.000
    Si1797   Si       0.31829    0.22129    0.68264    1.000
    N1798    N        0.28907    0.21158    0.71338    1.000
    N1799    N        0.34740    0.18803    0.69247    1.000
    N1800    N        0.24541    0.23908    0.65660    1.000
    Si1801   Si       0.38879    0.19844    0.70316    1.000
    N1802    N        0.42306    0.18537    0.67807    1.000
    N1803    N        0.43679    0.24028    0.63782    1.000
    N1804    N        0.48712    0.20278    0.64949    1.000
    Si1805   Si       0.45086    0.21822    0.67463    1.000
    Si1806   Si       0.32523    0.22135    0.79673    1.000
    N1807    N        0.25659    0.19455    0.77283    1.000
    N1808    N        0.32257    0.23578    0.83824    1.000
    N1809    N        0.36386    0.23580    0.78310    1.000
    Si1810   Si       0.27048    0.22633    0.75023    1.000
    Si1811   Si       0.44213    0.22132    0.79996    1.000
    Si1812   Si       0.37873    0.19639    0.77800    1.000
    N1813    N        0.47700    0.19804    0.78828    1.000
    N1814    N        0.40850    0.19669    0.81022    1.000
    N1815    N        0.45729    0.23949    0.84039    1.000
    Si1816   Si       0.30978    0.21232    0.87187    1.000
    Si1817   Si       0.25663    0.19002    0.97426    1.000
    N1818    N        0.28086    0.22909    0.90363    1.000
    N1819    N        0.28983    0.21798    0.97076    1.000
    N1820    N        0.34354    0.19799    0.89167    1.000
    Si1821   Si       0.33017    0.20715    0.97351    1.000
    Si1822   Si       0.25499    0.19648    0.89579    1.000
    N1823    N        0.35541    0.23242    0.94840    1.000
    Si1824   Si       0.36516    0.23140    0.90672    1.000
    N1825    N        0.40473    0.22277    0.88878    1.000
    N1826    N        0.46384    0.19407    0.91535    1.000
    Si1827   Si       0.47695    0.22153    0.94623    1.000
    N1828    N        0.44442    0.22455    0.97540    1.000
    Si1829   Si       0.42498    0.18294    0.89437    1.000
    Si1830   Si       0.29559    0.25658    0.09309    1.000
    N1831    N        0.29048    0.29078    0.00261    1.000
    N1832    N        0.31149    0.25247    0.05259    1.000
    Si1833   Si       0.30535    0.29504    0.04372    1.000
    N1834    N        0.25342    0.24779    0.10184    1.000
    Si1835   Si       0.24935    0.27596    0.99741    1.000
    N1836    N        0.29730    0.30141    0.08669    1.000
    N1837    N        0.36949    0.26023    0.01324    1.000
    N1838    N        0.45982    0.29389    0.00661    1.000
    N1839    N        0.46919    0.28169    0.07733    1.000
    N1840    N        0.40595    0.28632    0.06203    1.000
    Si1841   Si       0.48585    0.27585    0.03753    1.000
    Si1842   Si       0.38111    0.29755    0.02883    1.000
    Si1843   Si       0.40439    0.24343    0.06728    1.000
    N1844    N        0.30690    0.26543    0.19113    1.000
    Si1845   Si       0.33087    0.26888    0.15673    1.000
    Si1846   Si       0.30081    0.29520    0.22226    1.000
    N1847    N        0.37168    0.25679    0.15477    1.000
    Si1848   Si       0.40737    0.25657    0.17954    1.000
    N1849    N        0.44864    0.27460    0.23731    1.000
    Si1850   Si       0.48320    0.24597    0.24351    1.000
    N1851    N        0.48820    0.24641    0.13496    1.000
    N1852    N        0.39041    0.24576    0.21954    1.000
    N1853    N        0.42336    0.29688    0.18171    1.000
    N1854    N        0.34679    0.27092    0.30946    1.000
    N1855    N        0.28417    0.26444    0.33315    1.000
    Si1856   Si       0.30848    0.25621    0.29883    1.000
    N1857    N        0.29340    0.27410    0.25888    1.000
    Si1858   Si       0.24327    0.28438    0.33880    1.000
    Si1859   Si       0.25629    0.24611    0.25801    1.000
    N1860    N        0.41876    0.25700    0.35035    1.000
    Si1861   Si       0.40717    0.26963    0.25220    1.000
    Si1862   Si       0.38452    0.25163    0.32035    1.000
    N1863    N        0.41202    0.24490    0.28575    1.000
    Si1864   Si       0.29307    0.26747    0.37549    1.000
    N1865    N        0.26403    0.28553    0.45771    1.000
    N1866    N        0.34492    0.27293    0.45429    1.000
    Si1867   Si       0.30500    0.27783    0.47214    1.000
    N1868    N        0.24957    0.27644    0.38287    1.000
    N1869    N        0.41285    0.25980    0.45605    1.000
    N1870    N        0.38252    0.29064    0.39502    1.000
    Si1871   Si       0.42030    0.29265    0.37524    1.000
    N1872    N        0.44860    0.28909    0.40759    1.000
    Si1873   Si       0.38277    0.28632    0.43745    1.000
    Si1874   Si       0.45399    0.25789    0.44068    1.000
    N1875    N        0.48638    0.28629    0.45379    1.000
    N1876    N        0.26825    0.26521    0.55763    1.000
    Si1877   Si       0.30937    0.27883    0.55541    1.000
    N1878    N        0.31134    0.29088    0.51254    1.000
    N1879    N        0.33197    0.24595    0.57302    1.000
    Si1880   Si       0.32779    0.24484    0.61739    1.000
    N1881    N        0.45970    0.28149    0.55772    1.000
    N1882    N        0.40583    0.28852    0.59931    1.000
    N1883    N        0.40580    0.29526    0.51710    1.000
    Si1884   Si       0.40334    0.24766    0.61260    1.000
    Si1885   Si       0.40886    0.25574    0.50047    1.000
    Si1886   Si       0.41798    0.30017    0.55864    1.000
    Si1887   Si       0.46662    0.23976    0.54778    1.000
    N1888    N        0.30406    0.27878    0.62416    1.000
    Si1889   Si       0.26026    0.27650    0.64136    1.000
    N1890    N        0.32923    0.26399    0.69275    1.000
    Si1891   Si       0.30247    0.29769    0.69546    1.000
    N1892    N        0.24407    0.26442    0.74788    1.000
    Si1893   Si       0.36989    0.26587    0.67822    1.000
    N1894    N        0.36736    0.24513    0.63836    1.000
    Si1895   Si       0.42831    0.25761    0.72986    1.000
    N1896    N        0.42561    0.30365    0.73149    1.000
    N1897    N        0.39523    0.24112    0.70347    1.000
    N1898    N        0.46301    0.24440    0.70670    1.000
    Si1899   Si       0.28005    0.28482    0.76680    1.000
    Si1900   Si       0.34939    0.26914    0.84738    1.000
    N1901    N        0.30034    0.24777    0.77369    1.000
    N1902    N        0.27359    0.29729    0.87191    1.000
    N1903    N        0.39361    0.27516    0.83542    1.000
    Si1904   Si       0.39360    0.26746    0.79156    1.000
    Si1905   Si       0.42327    0.25101    0.86321    1.000
    N1906    N        0.42889    0.25063    0.77148    1.000
    Si1907   Si       0.27698    0.24860    0.94219    1.000
    N1908    N        0.34545    0.26684    0.88907    1.000
    N1909    N        0.29614    0.28572    0.93741    1.000
    Si1910   Si       0.31150    0.29287    0.89746    1.000
    N1911    N        0.47561    0.26553    0.94003    1.000
    Si1912   Si       0.37106    0.26838    0.96939    1.000
    N1913    N        0.43520    0.28745    0.88204    1.000
    Si1914   Si       0.44717    0.26980    0.97197    1.000
    N1915    N        0.41190    0.27873    0.94919    1.000
    Si1916   Si       0.47495    0.28452    0.90146    1.000
    Si1917   Si       0.26121    0.33771    0.07649    1.000
    N1918    N        0.28597    0.34575    0.04258    1.000
    N1919    N        0.34305    0.31747    0.03574    1.000
    Si1920   Si       0.26653    0.34663    0.00486    1.000
    N1921    N        0.34372    0.35401    0.09294    1.000
    Si1922   Si       0.32893    0.35501    0.05184    1.000
    Si1923   Si       0.31297    0.33239    0.11415    1.000
    N1924    N        0.27629    0.35575    0.11433    1.000
    N1925    N        0.45930    0.34263    0.06301    1.000
    N1926    N        0.40384    0.32648    0.00597    1.000
    Si1927   Si       0.44419    0.33296    0.01960    1.000
    N1928    N        0.41231    0.33294    0.11456    1.000
    Si1929   Si       0.43607    0.31137    0.08294    1.000
    N1930    N        0.32779    0.31190    0.14943    1.000
    N1931    N        0.26698    0.32133    0.20861    1.000
    N1932    N        0.33109    0.32649    0.22218    1.000
    Si1933   Si       0.33845    0.34118    0.18162    1.000
    N1934    N        0.43942    0.34304    0.23763    1.000
    N1935    N        0.37826    0.35496    0.17296    1.000
    N1936    N        0.45026    0.35577    0.16989    1.000
    Si1937   Si       0.41424    0.33314    0.15876    1.000
    Si1938   Si       0.45308    0.31074    0.21240    1.000
    N1939    N        0.32805    0.34656    0.29082    1.000
    N1940    N        0.25165    0.32690    0.34503    1.000
    Si1941   Si       0.35565    0.31169    0.29973    1.000
    Si1942   Si       0.33260    0.36073    0.24944    1.000
    N1943    N        0.37055    0.32723    0.33688    1.000
    N1944    N        0.43469    0.32981    0.35795    1.000
    Si1945   Si       0.46384    0.35016    0.33515    1.000
    N1946    N        0.39128    0.30623    0.27188    1.000
    Si1947   Si       0.40764    0.34578    0.26852    1.000
    Si1948   Si       0.39940    0.35756    0.35275    1.000
    N1949    N        0.43906    0.35879    0.29744    1.000
    Si1950   Si       0.28115    0.33863    0.37567    1.000
    Si1951   Si       0.35418    0.32029    0.37904    1.000
    N1952    N        0.29855    0.34231    0.47007    1.000
    Si1953   Si       0.25859    0.32678    0.45039    1.000
    N1954    N        0.26628    0.35340    0.41562    1.000
    N1955    N        0.31197    0.30760    0.38096    1.000
    N1956    N        0.44412    0.35676    0.42621    1.000
    N1957    N        0.38775    0.32668    0.45637    1.000
    N1958    N        0.37847    0.35466    0.39238    1.000
    Si1959   Si       0.47065    0.32188    0.42791    1.000
    Si1960   Si       0.40014    0.35802    0.43018    1.000
    N1961    N        0.35566    0.34344    0.51916    1.000
    Si1962   Si       0.31266    0.33298    0.51058    1.000
    N1963    N        0.32119    0.31791    0.56983    1.000
    N1964    N        0.27908    0.35222    0.53445    1.000
    N1965    N        0.28560    0.34458    0.61460    1.000
    Si1966   Si       0.36062    0.34391    0.56678    1.000
    Si1967   Si       0.32168    0.31831    0.61838    1.000
    Si1968   Si       0.23897    0.35348    0.52286    1.000
    N1969    N        0.36147    0.33458    0.61333    1.000
    Si1970   Si       0.39231    0.33349    0.50030    1.000
    N1971    N        0.47455    0.34416    0.59531    1.000
    N1972    N        0.40617    0.34372    0.56104    1.000
    N1973    N        0.47966    0.34669    0.53412    1.000
    N1974    N        0.31921    0.32952    0.66814    1.000
    N1975    N        0.29802    0.31128    0.73683    1.000
    Si1976   Si       0.36073    0.33857    0.67896    1.000
    Si1977   Si       0.32073    0.34787    0.74155    1.000
    Si1978   Si       0.28607    0.35819    0.65555    1.000
    N1979    N        0.36033    0.33758    0.72302    1.000
    N1980    N        0.26417    0.30104    0.67546    1.000
    Si1981   Si       0.39282    0.32718    0.74772    1.000
    N1982    N        0.42218    0.35951    0.63656    1.000
    Si1983   Si       0.40094    0.32143    0.62814    1.000
    Si1984   Si       0.46092    0.32579    0.73728    1.000
    N1985    N        0.38452    0.30540    0.66733    1.000
    Si1986   Si       0.28670    0.31659    0.83515    1.000
    Si1987   Si       0.35234    0.32537    0.80167    1.000
    N1988    N        0.32758    0.35579    0.78305    1.000
    Si1989   Si       0.35286    0.34161    0.86600    1.000
    N1990    N        0.33004    0.30604    0.83470    1.000
    N1991    N        0.26222    0.30221    0.80181    1.000
    N1992    N        0.44010    0.34560    0.84081    1.000
    N1993    N        0.38175    0.34227    0.82880    1.000
    Si1994   Si       0.40948    0.31516    0.85251    1.000
    N1995    N        0.40937    0.36245    0.76715    1.000
    Si1996   Si       0.47180    0.35296    0.86921    1.000
    N1997    N        0.48714    0.33221    0.77091    1.000
    N1998    N        0.37322    0.30125    0.77556    1.000
    Si1999   Si       0.31229    0.31035    0.96959    1.000
    N2000    N        0.35419    0.30876    0.96367    1.000
    N2001    N        0.29731    0.35086    0.97201    1.000
    N2002    N        0.32023    0.33638    0.89495    1.000
    Si2003   Si       0.41194    0.30821    0.91703    1.000
    N2004    N        0.38516    0.32645    0.88926    1.000
    N2005    N        0.48701    0.32621    0.90259    1.000
    Si2006   Si       0.38766    0.34055    0.96928    1.000
    N2007    N        0.42049    0.34610    0.94039    1.000
    N2008    N        0.33943    0.39638    0.04275    1.000
    N2009    N        0.24515    0.38392    0.00441    1.000
    N2010    N        0.27504    0.41397    0.06003    1.000
    N2011    N        0.40355    0.38237    0.06743    1.000
    Si2012   Si       0.44619    0.38453    0.07008    1.000
    N2013    N        0.47018    0.38968    0.10526    1.000
    Si2014   Si       0.37938    0.41113    0.04543    1.000
    Si2015   Si       0.44466    0.41338    0.00144    1.000
    Si2016   Si       0.38417    0.36416    0.10150    1.000
    N2017    N        0.45671    0.36974    0.99984    1.000
    Si2018   Si       0.31460    0.41485    0.16381    1.000
    N2019    N        0.24733    0.41526    0.12659    1.000
    Si2020   Si       0.24457    0.37219    0.13591    1.000
    N2021    N        0.24619    0.38446    0.18170    1.000
    N2022    N        0.31123    0.37244    0.17618    1.000
    N2023    N        0.29364    0.38040    0.24022    1.000
    Si2024   Si       0.27827    0.36269    0.20499    1.000
    N2025    N        0.47662    0.39669    0.22612    1.000
    Si2026   Si       0.39184    0.41401    0.24409    1.000
    N2027    N        0.38255    0.40131    0.12606    1.000
    N2028    N        0.40989    0.40837    0.20403    1.000
    Si2029   Si       0.38431    0.39747    0.17058    1.000
    Si2030   Si       0.44845    0.39260    0.19202    1.000
    Si2031   Si       0.26084    0.39721    0.26395    1.000
    N2032    N        0.26293    0.38026    0.30322    1.000
    Si2033   Si       0.30633    0.37471    0.31550    1.000
    N2034    N        0.30634    0.37013    0.35780    1.000
    N2035    N        0.32375    0.41130    0.30014    1.000
    N2036    N        0.48445    0.40489    0.28820    1.000
    Si2037   Si       0.44072    0.40502    0.31585    1.000
    N2038    N        0.46592    0.39182    0.34963    1.000
    N2039    N        0.39986    0.39693    0.33801    1.000
    Si2040   Si       0.47059    0.36655    0.26136    1.000
    N2041    N        0.37513    0.37327    0.25147    1.000
    N2042    N        0.42512    0.41878    0.27146    1.000
    Si2043   Si       0.30757    0.41004    0.38179    1.000
    Si2044   Si       0.28856    0.37863    0.44575    1.000
    N2045    N        0.26855    0.40610    0.47497    1.000
    N2046    N        0.31972    0.40157    0.42302    1.000
    Si2047   Si       0.35317    0.42463    0.44240    1.000
    Si2048   Si       0.47401    0.38669    0.44050    1.000
    N2049    N        0.45412    0.41852    0.46019    1.000
    N2050    N        0.38909    0.39822    0.44635    1.000
    Si2051   Si       0.41773    0.40448    0.47882    1.000
    Si2052   Si       0.49118    0.41798    0.37312    1.000
    N2053    N        0.26842    0.39690    0.58122    1.000
    N2054    N        0.33460    0.37960    0.57337    1.000
    Si2055   Si       0.28098    0.41614    0.61887    1.000
    Si2056   Si       0.29439    0.36186    0.57538    1.000
    N2057    N        0.45610    0.40480    0.55283    1.000
    Si2058   Si       0.43707    0.36664    0.54074    1.000
    N2059    N        0.41733    0.36905    0.50237    1.000
    N2060    N        0.47258    0.40702    0.61671    1.000
    N2061    N        0.38392    0.42120    0.61616    1.000
    Si2062   Si       0.48832    0.38582    0.57820    1.000
    N2063    N        0.24403    0.36540    0.67040    1.000
    N2064    N        0.30761    0.38259    0.71858    1.000
    N2065    N        0.30273    0.39860    0.65431    1.000
    Si2066   Si       0.33287    0.40284    0.68663    1.000
    Si2067   Si       0.27669    0.40918    0.73503    1.000
    N2068    N        0.36708    0.38049    0.66957    1.000
    N2069    N        0.46203    0.36628    0.71940    1.000
    Si2070   Si       0.46538    0.36687    0.63121    1.000
    Si2071   Si       0.40028    0.39450    0.64700    1.000
    Si2072   Si       0.31667    0.38096    0.81659    1.000
    N2073    N        0.33995    0.38257    0.85547    1.000
    Si2074   Si       0.25020    0.38363    0.85728    1.000
    N2075    N        0.24343    0.39444    0.75832    1.000
    N2076    N        0.28208    0.36080    0.83625    1.000
    N2077    N        0.40275    0.40733    0.83079    1.000
    N2078    N        0.45795    0.39275    0.79484    1.000
    Si2079   Si       0.41482    0.36778    0.81163    1.000
    Si2080   Si       0.43900    0.38912    0.75165    1.000
    N2081    N        0.27709    0.40853    0.88011    1.000
    Si2082   Si       0.32439    0.38439    0.96582    1.000
    Si2083   Si       0.30980    0.37964    0.88917    1.000
    N2084    N        0.32927    0.39847    0.92322    1.000
    N2085    N        0.31154    0.41806    0.98585    1.000
    N2086    N        0.42995    0.41399    0.95642    1.000
    Si2087   Si       0.44915    0.37995    0.93672    1.000
    N2088    N        0.45753    0.38606    0.89254    1.000
    Si2089   Si       0.38775    0.41640    0.96749    1.000
    N2090    N        0.36700    0.37717    0.97175    1.000
    N2091    N        0.30399    0.46382    0.02944    1.000
    Si2092   Si       0.27752    0.43190    0.10027    1.000
    Si2093   Si       0.36088    0.43703    0.11305    1.000
    N2094    N        0.31675    0.43237    0.12093    1.000
    Si2095   Si       0.30672    0.41966    0.02963    1.000
    N2096    N        0.37356    0.44693    0.07016    1.000
    Si2097   Si       0.45529    0.46007    0.05946    1.000
    N2098    N        0.44670    0.45630    0.10340    1.000
    N2099    N        0.39968    0.42163    0.00990    1.000
    N2100    N        0.45713    0.41873    0.04465    1.000
    Si2101   Si       0.24454    0.43086    0.16877    1.000
    N2102    N        0.35351    0.42668    0.17991    1.000
    N2103    N        0.28382    0.44110    0.18344    1.000
    Si2104   Si       0.37036    0.46833    0.17981    1.000
    N2105    N        0.46160    0.42558    0.16678    1.000
    N2106    N        0.38050    0.46820    0.13564    1.000
    Si2107   Si       0.47153    0.42866    0.12597    1.000
    N2108    N        0.46423    0.46306    0.23243    1.000
    Si2109   Si       0.47988    0.45564    0.19289    1.000
    Si2110   Si       0.33148    0.45621    0.30382    1.000
    N2111    N        0.33829    0.43694    0.36404    1.000
    N2112    N        0.25280    0.43854    0.25548    1.000
    N2113    N        0.31827    0.47376    0.26584    1.000
    N2114    N        0.37291    0.46051    0.31235    1.000
    Si2115   Si       0.41035    0.45989    0.28846    1.000
    N2116    N        0.43659    0.44895    0.32340    1.000
    Si2117   Si       0.38021    0.43425    0.34939    1.000
    Si2118   Si       0.43952    0.46698    0.36199    1.000
    Si2119   Si       0.46466    0.42687    0.25509    1.000
    N2120    N        0.38131    0.45685    0.24957    1.000
    N2121    N        0.33815    0.42869    0.48344    1.000
    N2122    N        0.26769    0.42518    0.37465    1.000
    Si2123   Si       0.29490    0.43788    0.49081    1.000
    N2124    N        0.35474    0.46670    0.43102    1.000
    N2125    N        0.28789    0.47374    0.47088    1.000
    N2126    N        0.40190    0.45757    0.38023    1.000
    N2127    N        0.47067    0.45345    0.38599    1.000
    Si2128   Si       0.47246    0.45611    0.47553    1.000
    N2129    N        0.31411    0.43878    0.60147    1.000
    N2130    N        0.28647    0.44184    0.53351    1.000
    Si2131   Si       0.31263    0.45815    0.56265    1.000
    N2132    N        0.35306    0.44258    0.55127    1.000
    Si2133   Si       0.25340    0.42046    0.54966    1.000
    Si2134   Si       0.36339    0.44648    0.51132    1.000
    Si2135   Si       0.34999    0.41806    0.58838    1.000
    Si2136   Si       0.46348    0.44781    0.55250    1.000
    N2137    N        0.40470    0.43404    0.50524    1.000
    N2138    N        0.42862    0.47467    0.55215    1.000
    Si2139   Si       0.41560    0.47700    0.51231    1.000
    N2140    N        0.24345    0.43088    0.63191    1.000
    N2141    N        0.35413    0.43613    0.70411    1.000
    N2142    N        0.25897    0.43105    0.70101    1.000
    Si2143   Si       0.33193    0.46536    0.72757    1.000
    Si2144   Si       0.26700    0.47413    0.70352    1.000
    Si2145   Si       0.47278    0.45076    0.62094    1.000
    N2146    N        0.41600    0.42928    0.66704    1.000
    N2147    N        0.48669    0.46878    0.73925    1.000
    N2148    N        0.42198    0.42567    0.73413    1.000
    N2149    N        0.43790    0.47591    0.62786    1.000
    Si2150   Si       0.39778    0.45865    0.63479    1.000
    Si2151   Si       0.39799    0.45047    0.70149    1.000
    Si2152   Si       0.44533    0.45947    0.74887    1.000
    Si2153   Si       0.29844    0.45134    0.79131    1.000
    N2154    N        0.25564    0.45065    0.80161    1.000
    N2155    N        0.32480    0.42338    0.80983    1.000
    N2156    N        0.30126    0.44225    0.74897    1.000
    Si2157   Si       0.36197    0.42088    0.83953    1.000
    Si2158   Si       0.43906    0.42646    0.81802    1.000
    N2159    N        0.43398    0.45993    0.79025    1.000
    N2160    N        0.46612    0.44240    0.84666    1.000
    N2161    N        0.35041    0.44910    0.87399    1.000
    Si2162   Si       0.29127    0.45526    0.97920    1.000
    Si2163   Si       0.25951    0.43596    0.91088    1.000
    Si2164   Si       0.33913    0.44106    0.91690    1.000
    N2165    N        0.29635    0.45493    0.92746    1.000
    N2166    N        0.24937    0.44701    0.98559    1.000
    N2167    N        0.37290    0.45099    0.94384    1.000
    Si2168   Si       0.45060    0.45178    0.95437    1.000
    Si2169   Si       0.47299    0.42639    0.88488    1.000
    N2170    N        0.46308    0.45566    0.91454    1.000
    N2171    N        0.47581    0.44708    0.99096    1.000
    Si2172   Si       0.32228    0.50308    0.01634    1.000
    N2173    N        0.29749    0.52528    0.04375    1.000
    Si2174   Si       0.27342    0.48723    0.05132    1.000
    N2175    N        0.36435    0.50555    0.02207    1.000
    N2176    N        0.26705    0.47560    0.09135    1.000
    N2177    N        0.40015    0.51019    0.08500    1.000
    Si2178   Si       0.38871    0.48501    0.05078    1.000
    Si2179   Si       0.41511    0.48428    0.11883    1.000
    Si2180   Si       0.43995    0.50721    0.99964    1.000
    N2181    N        0.48265    0.51597    0.00458    1.000
    N2182    N        0.42997    0.48058    0.03289    1.000
    Si2183   Si       0.29489    0.48257    0.19207    1.000
    N2184    N        0.33848    0.48537    0.20164    1.000
    N2185    N        0.28936    0.50699    0.15735    1.000
    N2186    N        0.27594    0.50546    0.22304    1.000
    Si2187   Si       0.25694    0.49671    0.13009    1.000
    Si2188   Si       0.35322    0.48980    0.24227    1.000
    N2189    N        0.39876    0.50028    0.19037    1.000
    N2190    N        0.47803    0.49215    0.17051    1.000
    N2191    N        0.45328    0.53464    0.22474    1.000
    Si2192   Si       0.47108    0.52406    0.14631    1.000
    N2193    N        0.42693    0.52463    0.13597    1.000
    Si2194   Si       0.27036    0.50763    0.32389    1.000
    N2195    N        0.24808    0.49628    0.28812    1.000
    N2196    N        0.30916    0.48601    0.32813    1.000
    N2197    N        0.24489    0.50014    0.35764    1.000
    Si2198   Si       0.32473    0.47955    0.36737    1.000
    Si2199   Si       0.27443    0.47741    0.25847    1.000
    N2200    N        0.43154    0.49645    0.28125    1.000
    N2201    N        0.44161    0.50769    0.35267    1.000
    Si2202   Si       0.43275    0.52560    0.31496    1.000
    Si2203   Si       0.46177    0.50114    0.25014    1.000
    N2204    N        0.37092    0.52739    0.24950    1.000
    Si2205   Si       0.26116    0.51003    0.39672    1.000
    Si2206   Si       0.25282    0.49745    0.47067    1.000
    N2207    N        0.32862    0.52488    0.45555    1.000
    N2208    N        0.29738    0.48759    0.39926    1.000
    Si2209   Si       0.31570    0.48644    0.43879    1.000
    N2210    N        0.35859    0.50768    0.37427    1.000
    N2211    N        0.26241    0.53889    0.47562    1.000
    Si2212   Si       0.36902    0.51681    0.47031    1.000
    Si2213   Si       0.38287    0.48908    0.40572    1.000
    N2214    N        0.39973    0.51359    0.43796    1.000
    N2215    N        0.44355    0.48898    0.48162    1.000
    Si2216   Si       0.43936    0.52023    0.45378    1.000
    N2217    N        0.46709    0.51787    0.42081    1.000
    N2218    N        0.31935    0.50062    0.56917    1.000
    N2219    N        0.25073    0.52449    0.55404    1.000
    Si2220   Si       0.35317    0.51779    0.58880    1.000
    Si2221   Si       0.29465    0.53363    0.55467    1.000
    Si2222   Si       0.42360    0.49518    0.59005    1.000
    N2223    N        0.38219    0.48851    0.60277    1.000
    N2224    N        0.48486    0.52752    0.54505    1.000
    N2225    N        0.37346    0.48813    0.50284    1.000
    N2226    N        0.43674    0.53651    0.58820    1.000
    N2227    N        0.30726    0.48778    0.70035    1.000
    N2228    N        0.24596    0.49708    0.73527    1.000
    Si2229   Si       0.30867    0.53415    0.69791    1.000
    Si2230   Si       0.24371    0.53224    0.66370    1.000
    N2231    N        0.24041    0.48998    0.67048    1.000
    N2232    N        0.34051    0.53614    0.62497    1.000
    N2233    N        0.36460    0.49068    0.74060    1.000
    N2234    N        0.46664    0.52006    0.67674    1.000
    Si2235   Si       0.42830    0.50500    0.66879    1.000
    Si2236   Si       0.36911    0.52337    0.65475    1.000
    N2237    N        0.38757    0.48531    0.66890    1.000
    Si2238   Si       0.39823    0.51592    0.74059    1.000
    N2239    N        0.42571    0.48503    0.71796    1.000
    Si2240   Si       0.48649    0.50751    0.71368    1.000
    Si2241   Si       0.27520    0.51337    0.76603    1.000
    N2242    N        0.31028    0.49305    0.78800    1.000
    Si2243   Si       0.34532    0.51156    0.80535    1.000
    N2244    N        0.27025    0.49308    0.85566    1.000
    N2245    N        0.33145    0.52542    0.84496    1.000
    N2246    N        0.24403    0.52074    0.79657    1.000
    Si2247   Si       0.24223    0.48618    0.82297    1.000
    Si2248   Si       0.36017    0.49283    0.86499    1.000
    Si2249   Si       0.29787    0.52011    0.87065    1.000
    N2250    N        0.37346    0.48371    0.82377    1.000
    N2251    N        0.44325    0.50516    0.84161    1.000
    N2252    N        0.41145    0.52151    0.78288    1.000
    Si2253   Si       0.41501    0.49239    0.81232    1.000
    Si2254   Si       0.47983    0.48316    0.83928    1.000
    Si2255   Si       0.42403    0.52870    0.87608    1.000
    N2256    N        0.30941    0.49446    0.97534    1.000
    N2257    N        0.32472    0.50800    0.90365    1.000
    Si2258   Si       0.29592    0.49773    0.93415    1.000
    N2259    N        0.25817    0.51810    0.93370    1.000
    N2260    N        0.42684    0.48694    0.96434    1.000
    Si2261   Si       0.48567    0.49448    0.91283    1.000
    N2262    N        0.39333    0.50128    0.89343    1.000
    N2263    N        0.37164    0.52493    0.95284    1.000
    N2264    N        0.45726    0.52432    0.90686    1.000
    Si2265   Si       0.39291    0.49033    0.93691    1.000
    N2266    N        0.34979    0.56710    0.07179    1.000
    Si2267   Si       0.25816    0.57446    0.09091    1.000
    Si2268   Si       0.30822    0.55584    0.07116    1.000
    N2269    N        0.29207    0.55348    0.11028    1.000
    N2270    N        0.35367    0.57062    0.00185    1.000
    Si2271   Si       0.35925    0.57831    0.11164    1.000
    N2272    N        0.28602    0.59309    0.06301    1.000
    Si2273   Si       0.36273    0.59242    0.03835    1.000
    N2274    N        0.40227    0.58536    0.10935    1.000
    Si2275   Si       0.43524    0.57282    0.03057    1.000
    N2276    N        0.45100    0.55490    0.06935    1.000
    Si2277   Si       0.41964    0.54677    0.09762    1.000
    N2278    N        0.46982    0.58512    0.00662    1.000
    N2279    N        0.41716    0.54370    0.00453    1.000
    Si2280   Si       0.31009    0.54371    0.14679    1.000
    Si2281   Si       0.27230    0.54984    0.21287    1.000
    N2282    N        0.35436    0.54548    0.14030    1.000
    N2283    N        0.30209    0.56754    0.18573    1.000
    N2284    N        0.24008    0.59794    0.12251    1.000
    Si2285   Si       0.41055    0.54114    0.22897    1.000
    N2286    N        0.40128    0.56597    0.19245    1.000
    N2287    N        0.47918    0.56361    0.16639    1.000
    Si2288   Si       0.47589    0.56732    0.20959    1.000
    Si2289   Si       0.39304    0.53582    0.16287    1.000
    N2290    N        0.33154    0.56859    0.34840    1.000
    N2291    N        0.26199    0.55007    0.32308    1.000
    Si2292   Si       0.24623    0.56791    0.35686    1.000
    Si2293   Si       0.24706    0.57083    0.28531    1.000
    N2294    N        0.27245    0.57429    0.24954    1.000
    N2295    N        0.35550    0.59425    0.28548    1.000
    Si2296   Si       0.36796    0.54627    0.35732    1.000
    Si2297   Si       0.47393    0.58243    0.34371    1.000
    Si2298   Si       0.37584    0.55643    0.28170    1.000
    N2299    N        0.41485    0.56798    0.26489    1.000
    N2300    N        0.47102    0.54927    0.31399    1.000
    N2301    N        0.38795    0.53943    0.32003    1.000
    Si2302   Si       0.30256    0.57810    0.37859    1.000
    N2303    N        0.27199    0.55045    0.38952    1.000
    Si2304   Si       0.30245    0.55221    0.47688    1.000
    N2305    N        0.30236    0.59412    0.47391    1.000
    N2306    N        0.44876    0.58703    0.41899    1.000
    Si2307   Si       0.47931    0.55803    0.41225    1.000
    N2308    N        0.38386    0.55075    0.49306    1.000
    N2309    N        0.38865    0.57705    0.37980    1.000
    N2310    N        0.45222    0.55550    0.47633    1.000
    N2311    N        0.28894    0.56025    0.58976    1.000
    Si2312   Si       0.35592    0.55624    0.52683    1.000
    N2313    N        0.31531    0.54743    0.51976    1.000
    Si2314   Si       0.24455    0.55214    0.58665    1.000
    N2315    N        0.24162    0.59413    0.57663    1.000
    Si2316   Si       0.48006    0.54477    0.58416    1.000
    Si2317   Si       0.41056    0.56702    0.57284    1.000
    Si2318   Si       0.46408    0.55608    0.51767    1.000
    N2319    N        0.43099    0.57990    0.53512    1.000
    Si2320   Si       0.39995    0.58971    0.50344    1.000
    N2321    N        0.37555    0.54655    0.56470    1.000
    N2322    N        0.40457    0.59364    0.60646    1.000
    Si2323   Si       0.30608    0.56247    0.62937    1.000
    N2324    N        0.28388    0.54611    0.66315    1.000
    N2325    N        0.35123    0.54338    0.69013    1.000
    N2326    N        0.29934    0.54189    0.74179    1.000
    N2327    N        0.40246    0.55942    0.73446    1.000
    N2328    N        0.46457    0.58557    0.64331    1.000
    Si2329   Si       0.37574    0.57742    0.70390    1.000
    Si2330   Si       0.42062    0.58082    0.64403    1.000
    Si2331   Si       0.49003    0.55000    0.65581    1.000
    N2332    N        0.40902    0.54116    0.65228    1.000
    Si2333   Si       0.34902    0.56554    0.85118    1.000
    N2334    N        0.35225    0.55080    0.78711    1.000
    Si2335   Si       0.32602    0.57162    0.76013    1.000
    Si2336   Si       0.28252    0.59507    0.86574    1.000
    N2337    N        0.32075    0.60054    0.84593    1.000
    Si2338   Si       0.39313    0.55801    0.79677    1.000
    N2339    N        0.47236    0.56506    0.79985    1.000
    N2340    N        0.38994    0.55193    0.84009    1.000
    Si2341   Si       0.42491    0.59257    0.74945    1.000
    Si2342   Si       0.48500    0.59609    0.82694    1.000
    N2343    N        0.24838    0.59599    0.94034    1.000
    N2344    N        0.35897    0.57061    0.89393    1.000
    Si2345   Si       0.27122    0.56085    0.92706    1.000
    Si2346   Si       0.32564    0.59072    0.97345    1.000
    N2347    N        0.30974    0.56120    0.94625    1.000
    N2348    N        0.28141    0.55785    0.88662    1.000
    Si2349   Si       0.34342    0.54260    0.92369    1.000
    N2350    N        0.42982    0.57229    0.88458    1.000
    Si2351   Si       0.39467    0.59582    0.88734    1.000
    Si2352   Si       0.47084    0.56871    0.90393    1.000
    Si2353   Si       0.37705    0.53455    0.99412    1.000
    Si2354   Si       0.31376    0.62340    0.07434    1.000
    N2355    N        0.33233    0.61411    0.11248    1.000
    N2356    N        0.34647    0.63011    0.04714    1.000
    Si2357   Si       0.26586    0.60707    0.02514    1.000
    N2358    N        0.24376    0.64369    0.03044    1.000
    N2359    N        0.29683    0.61352    0.99639    1.000
    N2360    N        0.45575    0.63260    0.07076    1.000
    Si2361   Si       0.41773    0.61899    0.08149    1.000
    N2362    N        0.40418    0.59997    0.04328    1.000
    Si2363   Si       0.33084    0.63928    0.14593    1.000
    N2364    N        0.29502    0.63793    0.17063    1.000
    N2365    N        0.31862    0.62132    0.23343    1.000
    N2366    N        0.35396    0.61357    0.17293    1.000
    Si2367   Si       0.31599    0.60704    0.19364    1.000
    N2368    N        0.41709    0.63915    0.17018    1.000
    N2369    N        0.48819    0.63403    0.16531    1.000
    Si2370   Si       0.45597    0.63773    0.19419    1.000
    Si2371   Si       0.39275    0.60823    0.19063    1.000
    N2372    N        0.45862    0.60596    0.22260    1.000
    N2373    N        0.39214    0.62084    0.23383    1.000
    N2374    N        0.29778    0.61999    0.29974    1.000
    Si2375   Si       0.26608    0.63008    0.32470    1.000
    Si2376   Si       0.28282    0.61652    0.25805    1.000
    N2377    N        0.35035    0.63366    0.34970    1.000
    Si2378   Si       0.33417    0.60518    0.32097    1.000
    N2379    N        0.27268    0.60426    0.35945    1.000
    Si2380   Si       0.35625    0.62646    0.25745    1.000
    N2381    N        0.25441    0.64702    0.24899    1.000
    N2382    N        0.44345    0.61144    0.35305    1.000
    N2383    N        0.43998    0.64002    0.28187    1.000
    Si2384   Si       0.45878    0.64178    0.32455    1.000
    Si2385   Si       0.42713    0.60757    0.25458    1.000
    N2386    N        0.34620    0.64789    0.46076    1.000
    Si2387   Si       0.31285    0.62253    0.44240    1.000
    N2388    N        0.28045    0.65062    0.43442    1.000
    N2389    N        0.32571    0.60125    0.40683    1.000
    Si2390   Si       0.36026    0.61023    0.38491    1.000
    Si2391   Si       0.23840    0.63393    0.43500    1.000
    N2392    N        0.41156    0.61751    0.47232    1.000
    Si2393   Si       0.38923    0.64579    0.44758    1.000
    N2394    N        0.48013    0.63070    0.46839    1.000
    Si2395   Si       0.42225    0.60372    0.39029    1.000
    N2396    N        0.39355    0.63173    0.40737    1.000
    Si2397   Si       0.45218    0.60002    0.46006    1.000
    N2398    N        0.30436    0.61551    0.55200    1.000
    Si2399   Si       0.34293    0.63279    0.54588    1.000
    Si2400   Si       0.28599    0.61110    0.51150    1.000
    Si2401   Si       0.28266    0.60591    0.58905    1.000
    N2402    N        0.26667    0.64788    0.60166    1.000
    N2403    N        0.24379    0.59835    0.50748    1.000
    N2404    N        0.28443    0.65484    0.50177    1.000
    N2405    N        0.36496    0.59916    0.52537    1.000
    Si2406   Si       0.40347    0.63727    0.60212    1.000
    N2407    N        0.44604    0.64276    0.59563    1.000
    Si2408   Si       0.47694    0.61344    0.61105    1.000
    N2409    N        0.37235    0.64940    0.57485    1.000
    N2410    N        0.30758    0.60693    0.62564    1.000
    Si2411   Si       0.29740    0.65059    0.63225    1.000
    N2412    N        0.34443    0.59780    0.72955    1.000
    N2413    N        0.40009    0.60167    0.67675    1.000
    Si2414   Si       0.43127    0.62614    0.69967    1.000
    N2415    N        0.41039    0.63519    0.73526    1.000
    N2416    N        0.45681    0.59546    0.71874    1.000
    Si2417   Si       0.29394    0.62432    0.81503    1.000
    Si2418   Si       0.34330    0.63683    0.85682    1.000
    N2419    N        0.30647    0.60718    0.77694    1.000
    N2420    N        0.25966    0.65046    0.79851    1.000
    Si2421   Si       0.32742    0.63387    0.74953    1.000
    N2422    N        0.26027    0.59599    0.82955    1.000
    Si2423   Si       0.41337    0.62578    0.81992    1.000
    N2424    N        0.45478    0.62533    0.83609    1.000
    N2425    N        0.38355    0.61954    0.85124    1.000
    N2426    N        0.40958    0.59627    0.78912    1.000
    Si2427   Si       0.25342    0.63746    0.92541    1.000
    N2428    N        0.33836    0.62808    0.95255    1.000
    N2429    N        0.27757    0.62974    0.88956    1.000
    Si2430   Si       0.30979    0.65075    0.97662    1.000
    N2431    N        0.46815    0.60178    0.93511    1.000
    Si2432   Si       0.36705    0.64990    0.92729    1.000
    Si2433   Si       0.47445    0.61587    0.97526    1.000
    Si2434   Si       0.44295    0.63711    0.92867    1.000
    N2435    N        0.44622    0.65406    0.96923    1.000
    N2436    N        0.40171    0.62389    0.91917    1.000
    Si2437   Si       0.33512    0.67223    0.04211    1.000
    Si2438   Si       0.25789    0.67578    0.05872    1.000
    N2439    N        0.29840    0.66388    0.06714    1.000
    N2440    N        0.33399    0.68025    0.00079    1.000
    N2441    N        0.36110    0.70018    0.06168    1.000
    Si2442   Si       0.24765    0.71704    0.10910    1.000
    N2443    N        0.43688    0.70191    0.05973    1.000
    Si2444   Si       0.47863    0.69232    0.07086    1.000
    Si2445   Si       0.39995    0.69477    0.07940    1.000
    N2446    N        0.40478    0.71246    0.00013    1.000
    N2447    N        0.40410    0.65708    0.10332    1.000
    N2448    N        0.33509    0.70544    0.22534    1.000
    N2449    N        0.27742    0.69499    0.13631    1.000
    Si2450   Si       0.26491    0.66988    0.16897    1.000
    N2451    N        0.34937    0.67732    0.14372    1.000
    N2452    N        0.26934    0.69712    0.20502    1.000
    Si2453   Si       0.31834    0.70870    0.13694    1.000
    N2454    N        0.45854    0.67640    0.21491    1.000
    N2455    N        0.47974    0.70799    0.15485    1.000
    Si2456   Si       0.45343    0.71262    0.18975    1.000
    Si2457   Si       0.39370    0.66840    0.14569    1.000
    N2458    N        0.41241    0.70548    0.16131    1.000
    N2459    N        0.26007    0.67275    0.33253    1.000
    N2460    N        0.29657    0.69817    0.27904    1.000
    Si2461   Si       0.33670    0.69890    0.26526    1.000
    Si2462   Si       0.28463    0.70542    0.31962    1.000
    N2463    N        0.32355    0.70318    0.34023    1.000
    Si2464   Si       0.35936    0.67790    0.35107    1.000
    N2465    N        0.36390    0.66533    0.27451    1.000
    Si2466   Si       0.26679    0.68749    0.24781    1.000
    N2467    N        0.43134    0.70654    0.27493    1.000
    Si2468   Si       0.39305    0.69177    0.28933    1.000
    N2469    N        0.46397    0.68343    0.34558    1.000
    N2470    N        0.39548    0.69034    0.33204    1.000
    Si2471   Si       0.45840    0.67558    0.25902    1.000
    Si2472   Si       0.43189    0.71318    0.34887    1.000
    N2473    N        0.28860    0.71346    0.39621    1.000
    Si2474   Si       0.32312    0.67294    0.49024    1.000
    Si2475   Si       0.27802    0.69510    0.43523    1.000
    N2476    N        0.30577    0.70714    0.46747    1.000
    N2477    N        0.36319    0.69937    0.39048    1.000
    Si2478   Si       0.39319    0.71465    0.41769    1.000
    Si2479   Si       0.43592    0.70454    0.47270    1.000
    N2480    N        0.40760    0.68558    0.44675    1.000
    N2481    N        0.34323    0.67245    0.52790    1.000
    Si2482   Si       0.24277    0.66807    0.50469    1.000
    Si2483   Si       0.49301    0.66176    0.49615    1.000
    Si2484   Si       0.36669    0.68994    0.55897    1.000
    Si2485   Si       0.47403    0.67488    0.60110    1.000
    N2486    N        0.45367    0.68263    0.50463    1.000
    N2487    N        0.47800    0.69638    0.56354    1.000
    N2488    N        0.40484    0.70837    0.55263    1.000
    N2489    N        0.32909    0.67956    0.62693    1.000
    N2490    N        0.34724    0.68200    0.69493    1.000
    Si2491   Si       0.30553    0.68020    0.69847    1.000
    N2492    N        0.29826    0.66244    0.73850    1.000
    N2493    N        0.27872    0.66042    0.67168    1.000
    Si2494   Si       0.36287    0.69032    0.65405    1.000
    Si2495   Si       0.37432    0.71256    0.71188    1.000
    N2496    N        0.45405    0.70435    0.62511    1.000
    N2497    N        0.39492    0.66609    0.63423    1.000
    N2498    N        0.44889    0.66003    0.67767    1.000
    Si2499   Si       0.42705    0.68791    0.65194    1.000
    N2500    N        0.39417    0.70345    0.74757    1.000
    Si2501   Si       0.34192    0.68478    0.80462    1.000
    Si2502   Si       0.28247    0.68305    0.77485    1.000
    N2503    N        0.24923    0.70764    0.76931    1.000
    N2504    N        0.31451    0.71127    0.78588    1.000
    N2505    N        0.36488    0.70782    0.83479    1.000
    N2506    N        0.31855    0.65859    0.83018    1.000
    N2507    N        0.35399    0.65684    0.77441    1.000
    N2508    N        0.41070    0.66731    0.80501    1.000
    N2509    N        0.45533    0.70171    0.84326    1.000
    Si2510   Si       0.40998    0.70139    0.83304    1.000
    Si2511   Si       0.39597    0.66238    0.76409    1.000
    Si2512   Si       0.46732    0.66099    0.85637    1.000
    N2513    N        0.27390    0.66240    0.95449    1.000
    Si2514   Si       0.25414    0.70101    0.96677    1.000
    N2515    N        0.35037    0.66384    0.89079    1.000
    Si2516   Si       0.42287    0.69156    0.96582    1.000
    N2517    N        0.38208    0.68302    0.95047    1.000
    Si2518   Si       0.36280    0.70263    0.87854    1.000
    Si2519   Si       0.36526    0.70445    0.98325    1.000
    N2520    N        0.40660    0.70644    0.88110    1.000
    Si2521   Si       0.44962    0.70741    0.89418    1.000
    N2522    N        0.45569    0.66390    0.89831    1.000
    N2523    N        0.32633    0.74182    0.10862    1.000
    Si2524   Si       0.26050    0.74938    0.03314    1.000
    Si2525   Si       0.35915    0.74078    0.08106    1.000
    N2526    N        0.25720    0.72055    0.06651    1.000
    N2527    N        0.29342    0.77602    0.02281    1.000
    Si2528   Si       0.30060    0.77621    0.12130    1.000
    N2529    N        0.46925    0.74479    0.00882    1.000
    N2530    N        0.39598    0.73220    0.10125    1.000
    Si2531   Si       0.43268    0.73080    0.02848    1.000
    N2532    N        0.26114    0.75792    0.12613    1.000
    Si2533   Si       0.30193    0.72572    0.20502    1.000
    N2534    N        0.32181    0.73787    0.17027    1.000
    N2535    N        0.28701    0.76348    0.22146    1.000
    Si2536   Si       0.35075    0.77264    0.16681    1.000
    N2537    N        0.45071    0.76652    0.13688    1.000
    Si2538   Si       0.48535    0.74256    0.12867    1.000
    N2539    N        0.42848    0.74114    0.21578    1.000
    Si2540   Si       0.41264    0.74209    0.13810    1.000
    Si2541   Si       0.40153    0.77427    0.21449    1.000
    N2542    N        0.26265    0.74484    0.31313    1.000
    N2543    N        0.36706    0.72703    0.28023    1.000
    N2544    N        0.44056    0.75441    0.33297    1.000
    Si2545   Si       0.43690    0.74694    0.25906    1.000
    N2546    N        0.47282    0.76456    0.27084    1.000
    Si2547   Si       0.47843    0.76656    0.31507    1.000
    Si2548   Si       0.36944    0.76976    0.28096    1.000
    Si2549   Si       0.32716    0.72277    0.37860    1.000
    Si2550   Si       0.30828    0.74710    0.47912    1.000
    Si2551   Si       0.24984    0.73133    0.39237    1.000
    N2552    N        0.33692    0.76505    0.38187    1.000
    N2553    N        0.25459    0.77112    0.37314    1.000
    N2554    N        0.27044    0.76746    0.49288    1.000
    N2555    N        0.23991    0.71839    0.43324    1.000
    N2556    N        0.47078    0.72306    0.45402    1.000
    N2557    N        0.42982    0.72182    0.39318    1.000
    N2558    N        0.37507    0.74533    0.44147    1.000
    Si2559   Si       0.38480    0.75839    0.48583    1.000
    Si2560   Si       0.46549    0.73492    0.41162    1.000
    Si2561   Si       0.34030    0.75931    0.54571    1.000
    N2562    N        0.28539    0.73153    0.60478    1.000
    Si2563   Si       0.27026    0.76288    0.58047    1.000
    N2564    N        0.34935    0.72542    0.57597    1.000
    N2565    N        0.34473    0.75159    0.50338    1.000
    Si2566   Si       0.32584    0.72061    0.61159    1.000
    Si2567   Si       0.39928    0.74913    0.57250    1.000
    N2568    N        0.44381    0.75390    0.56508    1.000
    Si2569   Si       0.45114    0.74582    0.61094    1.000
    Si2570   Si       0.44536    0.71818    0.53605    1.000
    N2571    N        0.40627    0.75260    0.61520    1.000
    N2572    N        0.48791    0.74438    0.52254    1.000
    N2573    N        0.42087    0.73838    0.49864    1.000
    N2574    N        0.35601    0.75340    0.71211    1.000
    N2575    N        0.29519    0.72148    0.69768    1.000
    Si2576   Si       0.32413    0.75104    0.68156    1.000
    N2577    N        0.34895    0.73686    0.64777    1.000
    Si2578   Si       0.25307    0.73041    0.69575    1.000
    N2579    N        0.24507    0.76199    0.72632    1.000
    N2580    N        0.47488    0.74328    0.71275    1.000
    Si2581   Si       0.38942    0.75390    0.65567    1.000
    N2582    N        0.41857    0.76700    0.74453    1.000
    N2583    N        0.46762    0.77013    0.64630    1.000
    N2584    N        0.40115    0.71634    0.67629    1.000
    Si2585   Si       0.32272    0.75467    0.79378    1.000
    Si2586   Si       0.25610    0.75158    0.76889    1.000
    N2587    N        0.30978    0.76124    0.83448    1.000
    Si2588   Si       0.34104    0.76661    0.86447    1.000
    N2589    N        0.36243    0.76976    0.78360    1.000
    Si2590   Si       0.46792    0.73214    0.81502    1.000
    N2591    N        0.41769    0.73807    0.80754    1.000
    Si2592   Si       0.42593    0.72882    0.76364    1.000
    N2593    N        0.46647    0.71810    0.77385    1.000
    N2594    N        0.46713    0.76994    0.83633    1.000
    N2595    N        0.34449    0.73843    0.89709    1.000
    N2596    N        0.34834    0.74152    0.97297    1.000
    N2597    N        0.27293    0.72626    0.99387    1.000
    Si2598   Si       0.30605    0.75627    0.98692    1.000
    Si2599   Si       0.34393    0.76155    0.93471    1.000
    N2600    N        0.44583    0.71647    0.93860    1.000
    Si2601   Si       0.45257    0.75927    0.93959    1.000
    N2602    N        0.43952    0.77148    0.89983    1.000
    N2603    N        0.29238    0.80405    0.08807    1.000
    Si2604   Si       0.31669    0.79990    0.05190    1.000
    N2605    N        0.35210    0.77618    0.05582    1.000
    Si2606   Si       0.25907    0.83149    0.09911    1.000
    Si2607   Si       0.38627    0.79876    0.03844    1.000
    Si2608   Si       0.45444    0.78425    0.00479    1.000
    N2609    N        0.39371    0.82930    0.06724    1.000
    N2610    N        0.42276    0.77440    0.03495    1.000
    N2611    N        0.37409    0.81500    0.99899    1.000
    N2612    N        0.35849    0.77831    0.20857    1.000
    N2613    N        0.30948    0.82897    0.20694    1.000
    N2614    N        0.32487    0.80035    0.14758    1.000
    Si2615   Si       0.32189    0.79153    0.22544    1.000
    Si2616   Si       0.24487    0.77877    0.21912    1.000
    N2617    N        0.42124    0.80729    0.19492    1.000
    N2618    N        0.38869    0.77769    0.14708    1.000
    Si2619   Si       0.42630    0.79974    0.15216    1.000
    N2620    N        0.30147    0.80613    0.32603    1.000
    N2621    N        0.33383    0.79368    0.26706    1.000
    Si2622   Si       0.34018    0.79297    0.34807    1.000
    Si2623   Si       0.31292    0.82496    0.28817    1.000
    Si2624   Si       0.26514    0.78351    0.33384    1.000
    N2625    N        0.27439    0.82663    0.26416    1.000
    Si2626   Si       0.41304    0.78813    0.33632    1.000
    N2627    N        0.43126    0.81709    0.30957    1.000
    Si2628   Si       0.42482    0.82104    0.26507    1.000
    N2629    N        0.37356    0.78260    0.32238    1.000
    N2630    N        0.40555    0.78038    0.26072    1.000
    N2631    N        0.41187    0.81241    0.37180    1.000
    N2632    N        0.46216    0.83456    0.25120    1.000
    N2633    N        0.31268    0.77746    0.44942    1.000
    Si2634   Si       0.27866    0.80155    0.46572    1.000
    N2635    N        0.24720    0.80572    0.43683    1.000
    Si2636   Si       0.24311    0.80588    0.39553    1.000
    Si2637   Si       0.34645    0.77585    0.42351    1.000
    Si2638   Si       0.44761    0.81145    0.39880    1.000
    N2639    N        0.47037    0.77880    0.41057    1.000
    N2640    N        0.37150    0.81206    0.42281    1.000
    N2641    N        0.39209    0.80303    0.48699    1.000
    N2642    N        0.25155    0.79442    0.60560    1.000
    Si2643   Si       0.30517    0.82399    0.55685    1.000
    N2644    N        0.30489    0.78017    0.55688    1.000
    N2645    N        0.26458    0.83591    0.55201    1.000
    N2646    N        0.46281    0.81509    0.57812    1.000
    Si2647   Si       0.38030    0.81825    0.52671    1.000
    N2648    N        0.37879    0.78122    0.55173    1.000
    Si2649   Si       0.48045    0.77732    0.55462    1.000
    Si2650   Si       0.48175    0.80230    0.61580    1.000
    N2651    N        0.29750    0.78217    0.66557    1.000
    Si2652   Si       0.30333    0.82272    0.68012    1.000
    N2653    N        0.34535    0.82637    0.66694    1.000
    Si2654   Si       0.25793    0.77973    0.64637    1.000
    N2655    N        0.30374    0.83002    0.72212    1.000
    Si2656   Si       0.45850    0.77947    0.73112    1.000
    Si2657   Si       0.44719    0.80387    0.66916    1.000
    N2658    N        0.46381    0.81574    0.70843    1.000
    N2659    N        0.37092    0.81868    0.73001    1.000
    Si2660   Si       0.37764    0.77790    0.74171    1.000
    Si2661   Si       0.38324    0.82394    0.68764    1.000
    N2662    N        0.40566    0.78938    0.67323    1.000
    N2663    N        0.45360    0.83115    0.63732    1.000
    Si2664   Si       0.29227    0.81694    0.76169    1.000
    N2665    N        0.26505    0.81968    0.83607    1.000
    Si2666   Si       0.28393    0.78780    0.86003    1.000
    N2667    N        0.29258    0.77528    0.76836    1.000
    N2668    N        0.25199    0.82908    0.77067    1.000
    Si2669   Si       0.46173    0.80305    0.80700    1.000
    N2670    N        0.41870    0.81150    0.80489    1.000
    N2671    N        0.47779    0.78698    0.77000    1.000
    N2672    N        0.38095    0.77827    0.85437    1.000
    Si2673   Si       0.39474    0.77491    0.81335    1.000
    N2674    N        0.32001    0.80062    0.88142    1.000
    Si2675   Si       0.27150    0.79654    0.93174    1.000
    N2676    N        0.30516    0.77603    0.94843    1.000
    N2677    N        0.26173    0.77469    0.89581    1.000
    N2678    N        0.42964    0.78039    0.96925    1.000
    N2679    N        0.48061    0.82373    0.87789    1.000
    Si2680   Si       0.47810    0.77860    0.87866    1.000
    N2681    N        0.37862    0.78782    0.92777    1.000
    Si2682   Si       0.40332    0.79224    0.88966    1.000
    Si2683   Si       0.39776    0.80867    0.96210    1.000
    N2684    N        0.48515    0.81449    0.99990    1.000
    Si2685   Si       0.30377    0.87145    0.05714    1.000
    N2686    N        0.27091    0.87042    0.08570    1.000
    N2687    N        0.33885    0.88170    0.08154    1.000
    Si2688   Si       0.34966    0.85053    0.00210    1.000
    N2689    N        0.32284    0.83950    0.03536    1.000
    Si2690   Si       0.37543    0.86846    0.06274    1.000
    N2691    N        0.46342    0.85230    0.05952    1.000
    N2692    N        0.37784    0.88114    0.02090    1.000
    Si2693   Si       0.42934    0.84382    0.08888    1.000
    N2694    N        0.41219    0.88740    0.08262    1.000
    N2695    N        0.26268    0.88325    0.20527    1.000
    Si2696   Si       0.27541    0.87726    0.16315    1.000
    N2697    N        0.31454    0.87642    0.15037    1.000
    Si2698   Si       0.27344    0.84370    0.22443    1.000
    Si2699   Si       0.32983    0.83868    0.16710    1.000
    N2700    N        0.25870    0.84106    0.14470    1.000
    N2701    N        0.36900    0.85083    0.17932    1.000
    Si2702   Si       0.40371    0.84745    0.20404    1.000
    N2703    N        0.43229    0.83932    0.13077    1.000
    Si2704   Si       0.47350    0.86818    0.22454    1.000
    N2705    N        0.43939    0.87302    0.19481    1.000
    Si2706   Si       0.44701    0.87471    0.15147    1.000
    N2707    N        0.33050    0.86309    0.28055    1.000
    N2708    N        0.28801    0.87662    0.33531    1.000
    Si2709   Si       0.30312    0.84368    0.35552    1.000
    N2710    N        0.34578    0.83476    0.36238    1.000
    Si2711   Si       0.36846    0.87801    0.26412    1.000
    N2712    N        0.41356    0.88036    0.35604    1.000
    N2713    N        0.45373    0.87815    0.30937    1.000
    Si2714   Si       0.44009    0.84996    0.33957    1.000
    N2715    N        0.47065    0.84196    0.37124    1.000
    N2716    N        0.39413    0.84751    0.24716    1.000
    Si2717   Si       0.26453    0.86797    0.40959    1.000
    N2718    N        0.35262    0.85456    0.46805    1.000
    N2719    N        0.30318    0.88334    0.41945    1.000
    Si2720   Si       0.34402    0.88378    0.43730    1.000
    N2721    N        0.28717    0.83531    0.48866    1.000
    N2722    N        0.27316    0.83405    0.38363    1.000
    Si2723   Si       0.32279    0.85969    0.49785    1.000
    Si2724   Si       0.44739    0.87367    0.44822    1.000
    N2725    N        0.41442    0.87588    0.47581    1.000
    N2726    N        0.48555    0.87310    0.47036    1.000
    N2727    N        0.43360    0.83506    0.43338    1.000
    N2728    N        0.37642    0.87473    0.41048    1.000
    Si2729   Si       0.37950    0.83782    0.38816    1.000
    Si2730   Si       0.39252    0.83453    0.45735    1.000
    Si2731   Si       0.25488    0.85023    0.51289    1.000
    N2732    N        0.32208    0.84140    0.59311    1.000
    N2733    N        0.33976    0.83695    0.53236    1.000
    Si2734   Si       0.36010    0.85957    0.56989    1.000
    Si2735   Si       0.48642    0.84288    0.55596    1.000
    N2736    N        0.38073    0.84808    0.61162    1.000
    Si2737   Si       0.42693    0.88167    0.55935    1.000
    N2738    N        0.39790    0.85172    0.54828    1.000
    N2739    N        0.46361    0.87419    0.53829    1.000
    Si2740   Si       0.24332    0.85257    0.67536    1.000
    N2741    N        0.28205    0.85307    0.65550    1.000
    Si2742   Si       0.34206    0.84865    0.73652    1.000
    N2743    N        0.35652    0.88529    0.71558    1.000
    N2744    N        0.25064    0.87772    0.71197    1.000
    Si2745   Si       0.34193    0.84805    0.63035    1.000
    Si2746   Si       0.48463    0.84674    0.73267    1.000
    N2747    N        0.40790    0.85509    0.67340    1.000
    Si2748   Si       0.41800    0.85605    0.62968    1.000
    Si2749   Si       0.33242    0.86174    0.81716    1.000
    N2750    N        0.30976    0.86656    0.85712    1.000
    Si2751   Si       0.26817    0.86339    0.83963    1.000
    N2752    N        0.32544    0.83955    0.78035    1.000
    N2753    N        0.37280    0.85158    0.83300    1.000
    Si2754   Si       0.40821    0.85435    0.80903    1.000
    N2755    N        0.44517    0.86583    0.83165    1.000
    N2756    N        0.46401    0.86491    0.76600    1.000
    Si2757   Si       0.48181    0.86811    0.80786    1.000
    N2758    N        0.40245    0.88776    0.78218    1.000
    N2759    N        0.32762    0.87177    0.97133    1.000
    N2760    N        0.35354    0.85575    0.90875    1.000
    Si2761   Si       0.31635    0.83984    0.89588    1.000
    N2762    N        0.27778    0.83745    0.91820    1.000
    Si2763   Si       0.24270    0.86313    0.90940    1.000
    Si2764   Si       0.35323    0.88847    0.93761    1.000
    N2765    N        0.26055    0.89501    0.88513    1.000
    Si2766   Si       0.42803    0.88352    0.93869    1.000
    N2767    N        0.42103    0.84357    0.95212    1.000
    Si2768   Si       0.44879    0.85280    0.87174    1.000
    N2769    N        0.45324    0.88587    0.90040    1.000
    Si2770   Si       0.38066    0.86175    0.87462    1.000
    N2771    N        0.41304    0.83291    0.88075    1.000
    N2772    N        0.29673    0.93001    0.10259    1.000
    Si2773   Si       0.25833    0.90932    0.10346    1.000
    Si2774   Si       0.24814    0.92141    0.03600    1.000
    N2775    N        0.28826    0.90243    0.03066    1.000
    Si2776   Si       0.32651    0.90104    0.11780    1.000
    Si2777   Si       0.40307    0.92195    0.11078    1.000
    N2778    N        0.46988    0.92029    0.08256    1.000
    N2779    N        0.43961    0.90977    0.01801    1.000
    Si2780   Si       0.40091    0.91217    0.99887    1.000
    Si2781   Si       0.44699    0.89194    0.05741    1.000
    N2782    N        0.24778    0.90470    0.14696    1.000
    Si2783   Si       0.27058    0.91728    0.23659    1.000
    Si2784   Si       0.34636    0.93963    0.23013    1.000
    N2785    N        0.36210    0.92263    0.13037    1.000
    Si2786   Si       0.48564    0.94197    0.22017    1.000
    N2787    N        0.47595    0.90683    0.24590    1.000
    N2788    N        0.37462    0.90798    0.23171    1.000
    N2789    N        0.43162    0.91716    0.14327    1.000
    Si2790   Si       0.28749    0.91899    0.34762    1.000
    N2791    N        0.31714    0.92772    0.31330    1.000
    N2792    N        0.25043    0.94040    0.33707    1.000
    Si2793   Si       0.35578    0.93875    0.29717    1.000
    N2794    N        0.25939    0.90064    0.27581    1.000
    Si2795   Si       0.30073    0.89452    0.28833    1.000
    N2796    N        0.31244    0.91799    0.24903    1.000
    Si2797   Si       0.41989    0.90491    0.31856    1.000
    N2798    N        0.38276    0.90543    0.29607    1.000
    N2799    N        0.42884    0.94705    0.32501    1.000
    Si2800   Si       0.48690    0.89357    0.28650    1.000
    N2801    N        0.30712    0.93939    0.37782    1.000
    N2802    N        0.26436    0.93777    0.44192    1.000
    N2803    N        0.34123    0.92952    0.43808    1.000
    Si2804   Si       0.29941    0.92719    0.41877    1.000
    Si2805   Si       0.33351    0.93841    0.48161    1.000
    N2806    N        0.24412    0.90235    0.38916    1.000
    N2807    N        0.31301    0.90104    0.49388    1.000
    N2808    N        0.44404    0.90157    0.41559    1.000
    Si2809   Si       0.40560    0.90248    0.39280    1.000
    Si2810   Si       0.47984    0.92235    0.40414    1.000
    N2811    N        0.38421    0.94020    0.38572    1.000
    N2812    N        0.45195    0.92886    0.48793    1.000
    Si2813   Si       0.31686    0.92810    0.57747    1.000
    N2814    N        0.35111    0.90262    0.56310    1.000
    N2815    N        0.28316    0.90221    0.59008    1.000
    Si2816   Si       0.24525    0.89137    0.57304    1.000
    N2817    N        0.23991    0.88885    0.52713    1.000
    Si2818   Si       0.36913    0.93813    0.54097    1.000
    N2819    N        0.41557    0.92078    0.54338    1.000
    Si2820   Si       0.47949    0.89932    0.50662    1.000
    Si2821   Si       0.41351    0.91229    0.49977    1.000
    N2822    N        0.37420    0.93243    0.49721    1.000
    N2823    N        0.43125    0.88928    0.60364    1.000
    Si2824   Si       0.29064    0.88848    0.63233    1.000
    N2825    N        0.29955    0.92562    0.73158    1.000
    N2826    N        0.27573    0.91972    0.65885    1.000
    Si2827   Si       0.26881    0.91523    0.70314    1.000
    Si2828   Si       0.34972    0.92933    0.65176    1.000
    Si2829   Si       0.34243    0.92571    0.72522    1.000
    N2830    N        0.33297    0.88901    0.64185    1.000
    N2831    N        0.46363    0.92613    0.65385    1.000
    N2832    N        0.42621    0.90456    0.71712    1.000
    N2833    N        0.39246    0.91787    0.65636    1.000
    Si2834   Si       0.46245    0.92009    0.69663    1.000
    Si2835   Si       0.39410    0.89233    0.69209    1.000
    Si2836   Si       0.42667    0.92435    0.62823    1.000
    Si2837   Si       0.30388    0.92642    0.81423    1.000
    N2838    N        0.34014    0.90363    0.80580    1.000
    N2839    N        0.29814    0.93838    0.85744    1.000
    Si2840   Si       0.24993    0.93339    0.86427    1.000
    N2841    N        0.27574    0.89418    0.80690    1.000
    N2842    N        0.37084    0.94326    0.75355    1.000
    N2843    N        0.46099    0.93428    0.77008    1.000
    Si2844   Si       0.37590    0.92170    0.79255    1.000
    Si2845   Si       0.43764    0.89895    0.75846    1.000
    Si2846   Si       0.39047    0.94668    0.86676    1.000
    N2847    N        0.38732    0.90432    0.87714    1.000
    Si2848   Si       0.30304    0.90240    0.88236    1.000
    N2849    N        0.32461    0.91286    0.91746    1.000
    N2850    N        0.26939    0.91458    0.96122    1.000
    N2851    N        0.32178    0.93997    0.98117    1.000
    Si2852   Si       0.30081    0.90214    0.98810    1.000
    Si2853   Si       0.30268    0.94169    0.94153    1.000
    N2854    N        0.46520    0.89843    0.95728    1.000
    N2855    N        0.39156    0.90258    0.95777    1.000
    Si2856   Si       0.48170    0.91211    0.91905    1.000
    Si2857   Si       0.47627    0.91140    0.99572    1.000
    N2858    N        0.27962    0.99307    0.08149    1.000
    N2859    N        0.32984    0.99031    0.02685    1.000
    Si2860   Si       0.28840    0.98804    0.03844    1.000
    N2861    N        0.25431    0.96205    0.02270    1.000
    Si2862   Si       0.29640    0.97143    0.11440    1.000
    Si2863   Si       0.24132    0.99771    0.99824    1.000
    Si2864   Si       0.40510    0.97417    0.04535    1.000
    N2865    N        0.45352    0.98193    0.04747    1.000
    Si2866   Si       0.45576    0.96052    0.08680    1.000
    N2867    N        0.41039    0.95447    0.08476    1.000
    N2868    N        0.38926    0.95323    0.01142    1.000
    Si2869   Si       0.35552    0.95840    0.15659    1.000
    N2870    N        0.26916    0.97526    0.14874    1.000
    N2871    N        0.33111    0.98739    0.13502    1.000
    Si2872   Si       0.28932    0.97439    0.18889    1.000
    N2873    N        0.32994    0.95630    0.19441    1.000
    N2874    N        0.26205    0.95455    0.21590    1.000
    N2875    N        0.45490    0.96632    0.19977    1.000
    Si2876   Si       0.44565    0.00919    0.21349    1.000
    N2877    N        0.46228    0.97469    0.12671    1.000
    N2878    N        0.39528    0.97262    0.15885    1.000
    Si2879   Si       0.43747    0.95666    0.15950    1.000
    Si2880   Si       0.32648    0.97172    0.35577    1.000
    N2881    N        0.25405    0.99209    0.28872    1.000
    N2882    N        0.29596    0.99195    0.33452    1.000
    Si2883   Si       0.25400    0.98264    0.33252    1.000
    N2884    N        0.35919    0.96712    0.26346    1.000
    N2885    N        0.36297    0.97279    0.32777    1.000
    Si2886   Si       0.36203    0.00011    0.29181    1.000
    Si2887   Si       0.39858    0.96352    0.35149    1.000
    N2888    N        0.45395    0.00230    0.25643    1.000
    Si2889   Si       0.47169    0.95529    0.33029    1.000
    N2890    N        0.48590    0.99548    0.32070    1.000
    N2891    N        0.30985    0.97642    0.47161    1.000
    Si2892   Si       0.26720    0.96731    0.47299    1.000
    N2893    N        0.34033    0.99366    0.38855    1.000
    Si2894   Si       0.36034    0.96281    0.41447    1.000
    Si2895   Si       0.45450    0.98822    0.39683    1.000
    Si2896   Si       0.41282    0.00768    0.44991    1.000
    N2897    N        0.47528    0.95474    0.37583    1.000
    N2898    N        0.44341    0.98001    0.43761    1.000
    N2899    N        0.41579    0.99649    0.37551    1.000
    Si2900   Si       0.46836    0.95798    0.46282    1.000
    N2901    N        0.37251    0.99174    0.44588    1.000
    Si2902   Si       0.29155    0.97830    0.53897    1.000
    N2903    N        0.28438    0.96858    0.58020    1.000
    Si2904   Si       0.30927    0.98229    0.61444    1.000
    N2905    N        0.26182    0.95978    0.51276    1.000
    N2906    N        0.32787    0.95422    0.53822    1.000
    Si2907   Si       0.24146    0.96666    0.58742    1.000
    N2908    N        0.33515    0.94759    0.61453    1.000
    N2909    N        0.39072    0.97723    0.54561    1.000
    N2910    N        0.46479    0.97990    0.55000    1.000
    N2911    N        0.42497    0.96138    0.60533    1.000
    Si2912   Si       0.42646    0.95996    0.56069    1.000
    Si2913   Si       0.45962    0.00566    0.51425    1.000
    Si2914   Si       0.33648    0.99200    0.70018    1.000
    N2915    N        0.30356    0.99674    0.72954    1.000
    N2916    N        0.27889    0.98744    0.64562    1.000
    Si2917   Si       0.25312    0.95621    0.65619    1.000
    N2918    N        0.24339    0.95238    0.69960    1.000
    N2919    N        0.34016    0.95117    0.68713    1.000
    N2920    N        0.37739    0.00162    0.71333    1.000
    Si2921   Si       0.48897    0.98284    0.67425    1.000
    N2922    N        0.46572    0.96276    0.70816    1.000
    Si2923   Si       0.42971    0.00117    0.62307    1.000
    N2924    N        0.46807    0.00133    0.64276    1.000
    N2925    N        0.31149    0.96194    0.79299    1.000
    Si2926   Si       0.29004    0.96317    0.75560    1.000
    Si2927   Si       0.34684    0.98229    0.81195    1.000
    N2928    N        0.24747    0.96750    0.76523    1.000
    N2929    N        0.32827    0.99873    0.84739    1.000
    Si2930   Si       0.45108    0.98844    0.84204    1.000
    N2931    N        0.42679    0.99687    0.76017    1.000
    N2932    N        0.48106    0.96822    0.82003    1.000
    Si2933   Si       0.38574    0.98402    0.75187    1.000
    N2934    N        0.37638    0.95294    0.82514    1.000
    Si2935   Si       0.46111    0.97384    0.74945    1.000
    N2936    N        0.37088    0.00721    0.78512    1.000
    Si2937   Si       0.32369    0.96920    0.87920    1.000
    N2938    N        0.24984    0.98884    0.95550    1.000
    N2939    N        0.30302    0.97709    0.91690    1.000
    N2940    N        0.36094    0.99370    0.96273    1.000
    Si2941   Si       0.35068    0.96749    0.99590    1.000
    Si2942   Si       0.27932    0.01084    0.93097    1.000
    N2943    N        0.43088    0.96286    0.86967    1.000
    Si2944   Si       0.45301    0.98097    0.90186    1.000
    N2945    N        0.36757    0.97103    0.89384    1.000
    Si2946   Si       0.38346    0.99579    0.92619    1.000
    N2947    N        0.48096    0.95508    0.91907    1.000
    N2948    N        0.42663    0.99891    0.93133    1.000
    N2949    N        0.49062    0.95448    0.98859    1.000
    N2950    N        0.55577    0.04043    0.05534    1.000
    Si2951   Si       0.53599    0.03920    0.09482    1.000
    Si2952   Si       0.54359    0.02112    0.01891    1.000
    N2953    N        0.50215    0.01383    0.02401    1.000
    N2954    N        0.64135    0.02988    0.06995    1.000
    Si2955   Si       0.66340    0.03127    0.10801    1.000
    N2956    N        0.69897    0.05462    0.10003    1.000
    N2957    N        0.66278    0.03287    0.01045    1.000
    Si2958   Si       0.64190    0.06061    0.03819    1.000
    N2959    N        0.54664    0.05334    0.19883    1.000
    Si2960   Si       0.51162    0.05055    0.22987    1.000
    Si2961   Si       0.58905    0.04414    0.20924    1.000
    N2962    N        0.56509    0.03387    0.12924    1.000
    Si2963   Si       0.54019    0.03050    0.16434    1.000
    Si2964   Si       0.60165    0.01645    0.14141    1.000
    N2965    N        0.50052    0.04255    0.14443    1.000
    N2966    N        0.58991    0.00969    0.18277    1.000
    N2967    N        0.63631    0.04358    0.13952    1.000
    N2968    N        0.65888    0.02208    0.24308    1.000
    N2969    N        0.73496    0.03983    0.19578    1.000
    N2970    N        0.56616    0.03926    0.32015    1.000
    Si2971   Si       0.55851    0.02153    0.27930    1.000
    N2972    N        0.51949    0.02883    0.26538    1.000
    N2973    N        0.59023    0.03015    0.25290    1.000
    N2974    N        0.50175    0.06250    0.33792    1.000
    Si2975   Si       0.49794    0.02229    0.35467    1.000
    Si2976   Si       0.65916    0.03159    0.32369    1.000
    N2977    N        0.69463    0.02430    0.29958    1.000
    N2978    N        0.72394    0.06148    0.35324    1.000
    Si2979   Si       0.72581    0.05194    0.31152    1.000
    N2980    N        0.66864    0.02239    0.36496    1.000
    Si2981   Si       0.55283    0.02399    0.40333    1.000
    Si2982   Si       0.50675    0.02657    0.46921    1.000
    N2983    N        0.55440    0.06473    0.38596    1.000
    N2984    N        0.60214    0.04109    0.49077    1.000
    N2985    N        0.59338    0.01100    0.41616    1.000
    N2986    N        0.53146    0.05358    0.49154    1.000
    N2987    N        0.52955    0.00846    0.43683    1.000
    N2988    N        0.64262    0.06143    0.43335    1.000
    N2989    N        0.71732    0.06584    0.48721    1.000
    Si2990   Si       0.61944    0.02840    0.45074    1.000
    Si2991   Si       0.73427    0.04399    0.45336    1.000
    N2992    N        0.70998    0.05548    0.41941    1.000
    Si2993   Si       0.71194    0.02844    0.38435    1.000
    N2994    N        0.58009    0.02970    0.56072    1.000
    Si2995   Si       0.54536    0.05012    0.58203    1.000
    N2996    N        0.51248    0.02062    0.59141    1.000
    Si2997   Si       0.61242    0.04638    0.53402    1.000
    Si2998   Si       0.68446    0.03942    0.57269    1.000
    N2999    N        0.64611    0.02636    0.55537    1.000
    N3000    N        0.71322    0.02216    0.54626    1.000
    N3001    N        0.69865    0.02289    0.61025    1.000
    Si3002   Si       0.73721    0.05012    0.52516    1.000
    Si3003   Si       0.74097    0.01292    0.61358    1.000
    N3004    N        0.50556    0.01687    0.69478    1.000
    Si3005   Si       0.52412    0.00993    0.73140    1.000
    N3006    N        0.53145    0.05238    0.74304    1.000
    N3007    N        0.61074    0.03608    0.71515    1.000
    Si3008   Si       0.64002    0.05347    0.68364    1.000
    N3009    N        0.71359    0.02122    0.71860    1.000
    N3010    N        0.64716    0.01331    0.66751    1.000
    Si3011   Si       0.70612    0.06508    0.72491    1.000
    Si3012   Si       0.53552    0.05245    0.83471    1.000
    N3013    N        0.49340    0.03502    0.81067    1.000
    Si3014   Si       0.50440    0.06017    0.77567    1.000
    N3015    N        0.57583    0.06356    0.84943    1.000
    N3016    N        0.54676    0.00839    0.82830    1.000
    Si3017   Si       0.61525    0.03527    0.75857    1.000
    Si3018   Si       0.71776    0.03792    0.84225    1.000
    N3019    N        0.65858    0.02808    0.76274    1.000
    Si3020   Si       0.65806    0.04420    0.80291    1.000
    N3021    N        0.69600    0.06285    0.81285    1.000
    N3022    N        0.62035    0.06467    0.79438    1.000
    Si3023   Si       0.52488    0.04907    0.94808    1.000
    N3024    N        0.54847    0.04994    0.91221    1.000
    Si3025   Si       0.58246    0.04285    0.88653    1.000
    N3026    N        0.55404    0.03910    0.97999    1.000
    N3027    N        0.49449    0.01796    0.95081    1.000
    N3028    N        0.69397    0.02649    0.87564    1.000
    N3029    N        0.67382    0.03338    0.94234    1.000
    Si3030   Si       0.69490    0.03242    0.98010    1.000
    N3031    N        0.61938    0.06083    0.90021    1.000
    Si3032   Si       0.69597    0.04939    0.91022    1.000
    N3033    N        0.72585    0.06288    0.98803    1.000
    Si3034   Si       0.63020    0.04121    0.93760    1.000
    Si3035   Si       0.57401    0.08111    0.05658    1.000
    N3036    N        0.59377    0.09156    0.09297    1.000
    N3037    N        0.51741    0.07654    0.09215    1.000
    Si3038   Si       0.51206    0.11458    0.06906    1.000
    N3039    N        0.54934    0.11506    0.04601    1.000
    N3040    N        0.60206    0.07134    0.02521    1.000
    Si3041   Si       0.60100    0.12289    0.11911    1.000
    Si3042   Si       0.69356    0.09220    0.07815    1.000
    N3043    N        0.66402    0.09693    0.04665    1.000
    Si3044   Si       0.72490    0.09898    0.01186    1.000
    N3045    N        0.72809    0.09541    0.05358    1.000
    N3046    N        0.69090    0.12332    0.10748    1.000
    N3047    N        0.69524    0.12454    0.99351    1.000
    Si3048   Si       0.49724    0.09018    0.13106    1.000
    N3049    N        0.52256    0.10917    0.16015    1.000
    Si3050   Si       0.53774    0.09599    0.19774    1.000
    N3051    N        0.50579    0.09211    0.22641    1.000
    N3052    N        0.57155    0.11776    0.21440    1.000
    Si3053   Si       0.61152    0.10881    0.22566    1.000
    Si3054   Si       0.49072    0.12580    0.24848    1.000
    N3055    N        0.68576    0.08996    0.16763    1.000
    N3056    N        0.62465    0.11664    0.15546    1.000
    Si3057   Si       0.71786    0.07835    0.19562    1.000
    Si3058   Si       0.64268    0.07880    0.16393    1.000
    N3059    N        0.69459    0.08175    0.23554    1.000
    N3060    N        0.62381    0.07080    0.20401    1.000
    Si3061   Si       0.65557    0.06462    0.23492    1.000
    N3062    N        0.55764    0.10840    0.32975    1.000
    N3063    N        0.50245    0.11401    0.28974    1.000
    Si3064   Si       0.54551    0.06943    0.34142    1.000
    N3065    N        0.66011    0.07545    0.32200    1.000
    Si3066   Si       0.65376    0.10721    0.29329    1.000
    N3067    N        0.63056    0.09031    0.26025    1.000
    Si3068   Si       0.64612    0.10376    0.35411    1.000
    Si3069   Si       0.72283    0.11182    0.25395    1.000
    Si3070   Si       0.72040    0.10451    0.36782    1.000
    N3071    N        0.73749    0.08318    0.28508    1.000
    N3072    N        0.60942    0.10115    0.37511    1.000
    N3073    N        0.57674    0.09072    0.44670    1.000
    Si3074   Si       0.57975    0.09329    0.40456    1.000
    Si3075   Si       0.57112    0.06785    0.48138    1.000
    Si3076   Si       0.70481    0.10869    0.48642    1.000
    Si3077   Si       0.67645    0.08385    0.42195    1.000
    N3078    N        0.68585    0.11864    0.44965    1.000
    N3079    N        0.67969    0.10300    0.38411    1.000
    Si3080   Si       0.52233    0.08846    0.51590    1.000
    N3081    N        0.55925    0.07884    0.61231    1.000
    N3082    N        0.56147    0.10896    0.50359    1.000
    Si3083   Si       0.58803    0.12204    0.53644    1.000
    N3084    N        0.52701    0.08111    0.55724    1.000
    Si3085   Si       0.56002    0.12281    0.60774    1.000
    N3086    N        0.61583    0.08918    0.54180    1.000
    Si3087   Si       0.65399    0.10604    0.55180    1.000
    N3088    N        0.68035    0.08238    0.57987    1.000
    Si3089   Si       0.68946    0.11537    0.60800    1.000
    N3090    N        0.67592    0.12129    0.51503    1.000
    Si3091   Si       0.53854    0.09012    0.71970    1.000
    Si3092   Si       0.59988    0.11064    0.66634    1.000
    N3093    N        0.56832    0.09350    0.68854    1.000
    N3094    N        0.49483    0.09008    0.70714    1.000
    N3095    N        0.48845    0.06912    0.64375    1.000
    N3096    N        0.63031    0.08310    0.65411    1.000
    N3097    N        0.67219    0.07452    0.70030    1.000
    N3098    N        0.71038    0.09915    0.64313    1.000
    Si3099   Si       0.66442    0.11099    0.67570    1.000
    Si3100   Si       0.73316    0.11365    0.67600    1.000
    Si3101   Si       0.60244    0.09000    0.82567    1.000
    N3102    N        0.53353    0.08068    0.80203    1.000
    Si3103   Si       0.54432    0.12266    0.78941    1.000
    N3104    N        0.50648    0.06536    0.86487    1.000
    N3105    N        0.54186    0.12438    0.74675    1.000
    N3106    N        0.69901    0.09809    0.75313    1.000
    Si3107   Si       0.71250    0.09856    0.79498    1.000
    N3108    N        0.63424    0.10599    0.85217    1.000
    Si3109   Si       0.61294    0.12077    0.95873    1.000
    N3110    N        0.51020    0.08907    0.94116    1.000
    Si3111   Si       0.52276    0.08392    0.89958    1.000
    N3112    N        0.54828    0.11465    0.88774    1.000
    N3113    N        0.57164    0.10836    0.96424    1.000
    Si3114   Si       0.58529    0.07076    0.98403    1.000
    Si3115   Si       0.64108    0.10034    0.89474    1.000
    N3116    N        0.68309    0.09041    0.90215    1.000
    N3117    N        0.62270    0.07581    0.96206    1.000
    Si3118   Si       0.55116    0.14721    0.01659    1.000
    N3119    N        0.49808    0.13387    0.10941    1.000
    Si3120   Si       0.61116    0.18004    0.00360    1.000
    N3121    N        0.62066    0.15802    0.10339    1.000
    Si3122   Si       0.63759    0.18114    0.07160    1.000
    N3123    N        0.66665    0.16561    0.04320    1.000
    Si3124   Si       0.66073    0.13022    0.01962    1.000
    N3125    N        0.51391    0.18237    0.16816    1.000
    N3126    N        0.56774    0.14806    0.13137    1.000
    Si3127   Si       0.52561    0.14916    0.14278    1.000
    N3128    N        0.51798    0.15627    0.23454    1.000
    Si3129   Si       0.56071    0.15269    0.23771    1.000
    Si3130   Si       0.59096    0.18422    0.12295    1.000
    N3131    N        0.66795    0.16923    0.16047    1.000
    N3132    N        0.72267    0.14483    0.17162    1.000
    Si3133   Si       0.68816    0.12985    0.14968    1.000
    N3134    N        0.63494    0.14247    0.21714    1.000
    Si3135   Si       0.62800    0.15586    0.17563    1.000
    Si3136   Si       0.70318    0.18155    0.18333    1.000
    N3137    N        0.57217    0.14813    0.27910    1.000
    N3138    N        0.51161    0.17128    0.32004    1.000
    Si3139   Si       0.53681    0.13752    0.30455    1.000
    Si3140   Si       0.60579    0.16277    0.30015    1.000
    N3141    N        0.58439    0.17054    0.33846    1.000
    Si3142   Si       0.58425    0.13162    0.35674    1.000
    Si3143   Si       0.71465    0.15510    0.30016    1.000
    N3144    N        0.68441    0.13312    0.27413    1.000
    Si3145   Si       0.65993    0.16243    0.24918    1.000
    N3146    N        0.71967    0.13197    0.33626    1.000
    N3147    N        0.63002    0.13163    0.32090    1.000
    N3148    N        0.63634    0.18377    0.27780    1.000
    Si3149   Si       0.53012    0.15575    0.41050    1.000
    N3150    N        0.52221    0.14011    0.45055    1.000
    N3151    N        0.58388    0.16505    0.46245    1.000
    N3152    N        0.56051    0.13278    0.39321    1.000
    Si3153   Si       0.56076    0.12881    0.46478    1.000
    N3154    N        0.49164    0.16743    0.38853    1.000
    N3155    N        0.68765    0.17927    0.40787    1.000
    Si3156   Si       0.67891    0.16135    0.44737    1.000
    N3157    N        0.71255    0.17714    0.46827    1.000
    N3158    N        0.64803    0.18214    0.47082    1.000
    N3159    N        0.57010    0.14382    0.57070    1.000
    Si3160   Si       0.58910    0.18159    0.50196    1.000
    N3161    N        0.61457    0.15341    0.52228    1.000
    N3162    N        0.65292    0.13958    0.57992    1.000
    Si3163   Si       0.68848    0.16582    0.56931    1.000
    N3164    N        0.71888    0.13842    0.58498    1.000
    Si3165   Si       0.65350    0.15903    0.50881    1.000
    Si3166   Si       0.63067    0.15472    0.61418    1.000
    N3167    N        0.68134    0.18430    0.53125    1.000
    N3168    N        0.52188    0.13578    0.62500    1.000
    Si3169   Si       0.51893    0.17011    0.64971    1.000
    N3170    N        0.52403    0.15707    0.69108    1.000
    Si3171   Si       0.54963    0.16390    0.72650    1.000
    N3172    N        0.59555    0.13428    0.63037    1.000
    N3173    N        0.59112    0.17873    0.73159    1.000
    Si3174   Si       0.63078    0.16762    0.71617    1.000
    N3175    N        0.66522    0.14228    0.64066    1.000
    Si3176   Si       0.68661    0.17091    0.66879    1.000
    Si3177   Si       0.69386    0.13964    0.73930    1.000
    N3178    N        0.62840    0.13155    0.69331    1.000
    N3179    N        0.70034    0.13805    0.69512    1.000
    Si3180   Si       0.59282    0.16703    0.82594    1.000
    N3181    N        0.51217    0.14906    0.80221    1.000
    Si3182   Si       0.49447    0.16383    0.76406    1.000
    N3183    N        0.57888    0.17735    0.86536    1.000
    N3184    N        0.51133    0.17332    0.86605    1.000
    N3185    N        0.57995    0.12700    0.81304    1.000
    Si3186   Si       0.50607    0.18603    0.82488    1.000
    N3187    N        0.72531    0.16150    0.75811    1.000
    Si3188   Si       0.71164    0.17094    0.79734    1.000
    N3189    N        0.63700    0.16893    0.81892    1.000
    Si3190   Si       0.66138    0.13881    0.83938    1.000
    N3191    N        0.69298    0.13347    0.81106    1.000
    N3192    N        0.65698    0.16026    0.75068    1.000
    N3193    N        0.53071    0.16154    0.92715    1.000
    Si3194   Si       0.54785    0.15666    0.88448    1.000
    N3195    N        0.57103    0.17267    0.98826    1.000
    N3196    N        0.51657    0.13911    0.99146    1.000
    Si3197   Si       0.49116    0.16383    0.90357    1.000
    Si3198   Si       0.53363    0.12564    0.95359    1.000
    N3199    N        0.69748    0.14817    0.93495    1.000
    Si3200   Si       0.71856    0.15415    0.97231    1.000
    N3201    N        0.67590    0.15113    0.87868    1.000
    Si3202   Si       0.65955    0.16388    0.91697    1.000
    N3203    N        0.62862    0.13270    0.91999    1.000
    Si3204   Si       0.70691    0.12541    0.89972    1.000
    N3205    N        0.62912    0.14326    0.99199    1.000
    Si3206   Si       0.56724    0.20603    0.05610    1.000
    N3207    N        0.56953    0.21232    0.09999    1.000
    Si3208   Si       0.50574    0.20012    0.01080    1.000
    N3209    N        0.49240    0.23265    0.03740    1.000
    N3210    N        0.60292    0.18450    0.04587    1.000
    N3211    N        0.53470    0.18318    0.03901    1.000
    N3212    N        0.71270    0.23434    0.11008    1.000
    N3213    N        0.64977    0.21311    0.09970    1.000
    Si3214   Si       0.69835    0.19357    0.03462    1.000
    N3215    N        0.68427    0.23374    0.04168    1.000
    N3216    N        0.73360    0.18793    0.05845    1.000
    Si3217   Si       0.67781    0.24327    0.08483    1.000
    N3218    N        0.50398    0.22967    0.20783    1.000
    N3219    N        0.61034    0.19374    0.16220    1.000
    Si3220   Si       0.58428    0.21899    0.18903    1.000
    Si3221   Si       0.51501    0.22889    0.16512    1.000
    N3222    N        0.56476    0.19197    0.21612    1.000
    N3223    N        0.55667    0.23976    0.16299    1.000
    Si3224   Si       0.51911    0.18868    0.20913    1.000
    Si3225   Si       0.69170    0.22992    0.24451    1.000
    Si3226   Si       0.64942    0.20353    0.14095    1.000
    N3227    N        0.68655    0.19026    0.22435    1.000
    N3228    N        0.72856    0.21367    0.17116    1.000
    N3229    N        0.66444    0.23901    0.16024    1.000
    Si3230   Si       0.49859    0.21162    0.31256    1.000
    Si3231   Si       0.60476    0.20334    0.35749    1.000
    N3232    N        0.58252    0.23958    0.36439    1.000
    Si3233   Si       0.65935    0.21185    0.30182    1.000
    N3234    N        0.64516    0.20849    0.34258    1.000
    N3235    N        0.70047    0.19559    0.30322    1.000
    Si3236   Si       0.73085    0.22709    0.30264    1.000
    N3237    N        0.73131    0.24157    0.26193    1.000
    N3238    N        0.54836    0.19531    0.41624    1.000
    N3239    N        0.60331    0.23126    0.44747    1.000
    Si3240   Si       0.51741    0.22329    0.43097    1.000
    Si3241   Si       0.59126    0.19372    0.42896    1.000
    N3242    N        0.52505    0.22558    0.47316    1.000
    Si3243   Si       0.66078    0.20475    0.38493    1.000
    Si3244   Si       0.63483    0.22434    0.47658    1.000
    N3245    N        0.61980    0.19229    0.39768    1.000
    N3246    N        0.67725    0.23884    0.48488    1.000
    Si3247   Si       0.72763    0.19728    0.41697    1.000
    N3248    N        0.56629    0.22730    0.56829    1.000
    Si3249   Si       0.51492    0.20572    0.50777    1.000
    N3250    N        0.50752    0.23478    0.53976    1.000
    N3251    N        0.61050    0.21831    0.51224    1.000
    N3252    N        0.54967    0.18207    0.52060    1.000
    Si3253   Si       0.56006    0.18679    0.56188    1.000
    Si3254   Si       0.70205    0.20791    0.50031    1.000
    Si3255   Si       0.73048    0.20521    0.61462    1.000
    Si3256   Si       0.65362    0.22399    0.60500    1.000
    N3257    N        0.68959    0.19979    0.59568    1.000
    N3258    N        0.62210    0.19623    0.61786    1.000
    N3259    N        0.55158    0.19828    0.64138    1.000
    Si3260   Si       0.59102    0.21731    0.63783    1.000
    N3261    N        0.60340    0.22924    0.67961    1.000
    Si3262   Si       0.53337    0.23937    0.64331    1.000
    N3263    N        0.65865    0.19368    0.69223    1.000
    Si3264   Si       0.64758    0.23408    0.68029    1.000
    N3265    N        0.72503    0.18793    0.65494    1.000
    N3266    N        0.66497    0.24256    0.64112    1.000
    N3267    N        0.58191    0.20019    0.80124    1.000
    N3268    N        0.52451    0.22820    0.81691    1.000
    Si3269   Si       0.59112    0.21340    0.75898    1.000
    Si3270   Si       0.51069    0.22512    0.77302    1.000
    Si3271   Si       0.56808    0.23517    0.82402    1.000
    N3272    N        0.52609    0.19030    0.75101    1.000
    Si3273   Si       0.65290    0.18966    0.78183    1.000
    N3274    N        0.68856    0.20650    0.79953    1.000
    N3275    N        0.63382    0.22391    0.76254    1.000
    N3276    N        0.72203    0.20657    0.86773    1.000
    N3277    N        0.58605    0.20796    0.92952    1.000
    Si3278   Si       0.59362    0.21219    0.88599    1.000
    N3279    N        0.51329    0.21033    0.97023    1.000
    Si3280   Si       0.55099    0.19204    0.95386    1.000
    N3281    N        0.61508    0.22182    0.99018    1.000
    Si3282   Si       0.71724    0.23777    0.89712    1.000
    Si3283   Si       0.62255    0.22597    0.94849    1.000
    N3284    N        0.63303    0.22061    0.87492    1.000
    N3285    N        0.72910    0.21779    0.93489    1.000
    Si3286   Si       0.69246    0.21831    0.95935    1.000
    N3287    N        0.65714    0.20163    0.93820    1.000
    N3288    N        0.70439    0.19054    0.99227    1.000
    Si3289   Si       0.55618    0.28196    0.06122    1.000
    N3290    N        0.53934    0.27354    0.10064    1.000
    Si3291   Si       0.60199    0.25657    0.01025    1.000
    Si3292   Si       0.49906    0.28053    0.10947    1.000
    N3293    N        0.52477    0.29467    0.03536    1.000
    N3294    N        0.57242    0.24667    0.04213    1.000
    N3295    N        0.59433    0.30241    0.06521    1.000
    Si3296   Si       0.56927    0.24995    0.12276    1.000
    Si3297   Si       0.67784    0.26838    0.01768    1.000
    N3298    N        0.66473    0.28406    0.09146    1.000
    N3299    N        0.63673    0.28127    0.01864    1.000
    N3300    N        0.70583    0.29557    0.03780    1.000
    Si3301   Si       0.62522    0.29666    0.09525    1.000
    N3302    N        0.60264    0.27788    0.12980    1.000
    Si3303   Si       0.59231    0.27741    0.23906    1.000
    N3304    N        0.60844    0.24956    0.20948    1.000
    N3305    N        0.71179    0.28832    0.16704    1.000
    Si3306   Si       0.70683    0.24802    0.15240    1.000
    Si3307   Si       0.64584    0.26289    0.19168    1.000
    Si3308   Si       0.70809    0.29561    0.21040    1.000
    N3309    N        0.68065    0.26448    0.22018    1.000
    Si3310   Si       0.54349    0.26723    0.29188    1.000
    N3311    N        0.51488    0.27125    0.25922    1.000
    Si3312   Si       0.54258    0.25494    0.36374    1.000
    N3313    N        0.57626    0.25240    0.27157    1.000
    N3314    N        0.56001    0.29646    0.36551    1.000
    Si3315   Si       0.60152    0.28037    0.36864    1.000
    N3316    N        0.52330    0.24606    0.32546    1.000
    N3317    N        0.62340    0.29687    0.26110    1.000
    Si3318   Si       0.66605    0.28795    0.26103    1.000
    N3319    N        0.72036    0.26035    0.33017    1.000
    N3320    N        0.62085    0.29702    0.33397    1.000
    Si3321   Si       0.72134    0.24874    0.37238    1.000
    N3322    N        0.66429    0.24753    0.27792    1.000
    N3323    N        0.52290    0.25775    0.40448    1.000
    Si3324   Si       0.60051    0.27483    0.44448    1.000
    Si3325   Si       0.52562    0.29057    0.43312    1.000
    N3326    N        0.56506    0.29845    0.44877    1.000
    N3327    N        0.68297    0.24249    0.38924    1.000
    N3328    N        0.62205    0.28228    0.40515    1.000
    N3329    N        0.63077    0.27899    0.47776    1.000
    Si3330   Si       0.73010    0.27325    0.43182    1.000
    Si3331   Si       0.67369    0.28055    0.47291    1.000
    Si3332   Si       0.66527    0.28362    0.39800    1.000
    N3333    N        0.68946    0.29202    0.43381    1.000
    N3334    N        0.58878    0.28463    0.53027    1.000
    Si3335   Si       0.53218    0.25293    0.57067    1.000
    N3336    N        0.52857    0.29635    0.56531    1.000
    N3337    N        0.51035    0.24892    0.60946    1.000
    Si3338   Si       0.59878    0.24478    0.54407    1.000
    Si3339   Si       0.64606    0.28825    0.57991    1.000
    N3340    N        0.68768    0.28757    0.59457    1.000
    N3341    N        0.63364    0.24782    0.57356    1.000
    Si3342   Si       0.61892    0.30525    0.50895    1.000
    N3343    N        0.57295    0.25721    0.63143    1.000
    Si3344   Si       0.57619    0.25810    0.69690    1.000
    Si3345   Si       0.50120    0.26738    0.70938    1.000
    N3346    N        0.53412    0.25119    0.68461    1.000
    N3347    N        0.58118    0.25340    0.74021    1.000
    Si3348   Si       0.58691    0.29882    0.64090    1.000
    N3349    N        0.58976    0.29736    0.68426    1.000
    N3350    N        0.73668    0.24669    0.61829    1.000
    Si3351   Si       0.70104    0.26607    0.63066    1.000
    N3352    N        0.65956    0.26742    0.70528    1.000
    N3353    N        0.71132    0.29447    0.66300    1.000
    N3354    N        0.58624    0.27129    0.80738    1.000
    Si3355   Si       0.58671    0.28794    0.76628    1.000
    N3356    N        0.50662    0.26349    0.75291    1.000
    N3357    N        0.49974    0.29224    0.81877    1.000
    Si3358   Si       0.49687    0.25622    0.83964    1.000
    Si3359   Si       0.51239    0.29861    0.77769    1.000
    N3360    N        0.57066    0.24381    0.86597    1.000
    N3361    N        0.68020    0.27288    0.83777    1.000
    N3362    N        0.69181    0.26580    0.76638    1.000
    Si3363   Si       0.69687    0.24917    0.80624    1.000
    Si3364   Si       0.64998    0.26302    0.74887    1.000
    N3365    N        0.62656    0.29397    0.87068    1.000
    Si3366   Si       0.71777    0.29144    0.74448    1.000
    Si3367   Si       0.54898    0.27696    0.88404    1.000
    N3368    N        0.55413    0.29467    0.92510    1.000
    N3369    N        0.50686    0.26714    0.87922    1.000
    N3370    N        0.58156    0.29347    0.99396    1.000
    Si3371   Si       0.66550    0.28206    0.94073    1.000
    N3372    N        0.68627    0.25877    0.97496    1.000
    Si3373   Si       0.65353    0.25901    0.86848    1.000
    N3374    N        0.62207    0.27091    0.94427    1.000
    N3375    N        0.67949    0.25967    0.90404    1.000
    N3376    N        0.56897    0.34728    0.02485    1.000
    Si3377   Si       0.60614    0.31656    0.02346    1.000
    Si3378   Si       0.54519    0.31773    0.00386    1.000
    Si3379   Si       0.49171    0.35186    0.09795    1.000
    N3380    N        0.63241    0.34987    0.01101    1.000
    N3381    N        0.67339    0.35226    0.06910    1.000
    Si3382   Si       0.69243    0.31473    0.07734    1.000
    N3383    N        0.71937    0.32835    0.10897    1.000
    N3384    N        0.62513    0.33509    0.11884    1.000
    Si3385   Si       0.48930    0.33761    0.16572    1.000
    N3386    N        0.56282    0.30977    0.22829    1.000
    Si3387   Si       0.60825    0.31334    0.15183    1.000
    N3388    N        0.57861    0.33951    0.16821    1.000
    Si3389   Si       0.57369    0.34917    0.21159    1.000
    Si3390   Si       0.52019    0.30928    0.23759    1.000
    N3391    N        0.49381    0.31290    0.20268    1.000
    N3392    N        0.49101    0.31934    0.12601    1.000
    Si3393   Si       0.64820    0.33949    0.20419    1.000
    N3394    N        0.61567    0.35598    0.22700    1.000
    N3395    N        0.68001    0.32479    0.23135    1.000
    N3396    N        0.63933    0.30455    0.18174    1.000
    Si3397   Si       0.52844    0.34017    0.30312    1.000
    N3398    N        0.50515    0.33965    0.26653    1.000
    N3399    N        0.50378    0.33326    0.33876    1.000
    N3400    N        0.55679    0.30811    0.29777    1.000
    Si3401   Si       0.60042    0.30810    0.29827    1.000
    N3402    N        0.61661    0.35141    0.30055    1.000
    Si3403   Si       0.65206    0.32852    0.32691    1.000
    N3404    N        0.72922    0.33235    0.34667    1.000
    Si3405   Si       0.69521    0.35233    0.36452    1.000
    N3406    N        0.67935    0.31124    0.29952    1.000
    Si3407   Si       0.71857    0.30233    0.31808    1.000
    N3408    N        0.67256    0.31694    0.37119    1.000
    Si3409   Si       0.53197    0.32888    0.37085    1.000
    Si3410   Si       0.56810    0.33814    0.46911    1.000
    N3411    N        0.51143    0.32586    0.40885    1.000
    N3412    N        0.60891    0.33988    0.48401    1.000
    N3413    N        0.49231    0.36018    0.46873    1.000
    N3414    N        0.68333    0.32096    0.48725    1.000
    N3415    N        0.73383    0.34480    0.44113    1.000
    Si3416   Si       0.69300    0.33487    0.44893    1.000
    Si3417   Si       0.59508    0.34175    0.60168    1.000
    N3418    N        0.58041    0.34962    0.56046    1.000
    Si3419   Si       0.55968    0.31464    0.54032    1.000
    N3420    N        0.54355    0.33445    0.50522    1.000
    Si3421   Si       0.50902    0.35940    0.50683    1.000
    Si3422   Si       0.48774    0.31447    0.56501    1.000
    N3423    N        0.61542    0.30445    0.60748    1.000
    N3424    N        0.71507    0.33550    0.54907    1.000
    Si3425   Si       0.71322    0.32316    0.59216    1.000
    Si3426   Si       0.67910    0.33775    0.52740    1.000
    N3427    N        0.64661    0.31205    0.54294    1.000
    N3428    N        0.68610    0.35415    0.60935    1.000
    N3429    N        0.56195    0.33463    0.63049    1.000
    Si3430   Si       0.49853    0.35066    0.69545    1.000
    N3431    N        0.50007    0.36057    0.65498    1.000
    N3432    N        0.48897    0.30956    0.70460    1.000
    Si3433   Si       0.67698    0.30620    0.68807    1.000
    Si3434   Si       0.72263    0.35933    0.71641    1.000
    N3435    N        0.69855    0.32367    0.72273    1.000
    N3436    N        0.65666    0.34079    0.67399    1.000
    N3437    N        0.55308    0.31503    0.76581    1.000
    N3438    N        0.56114    0.31278    0.85716    1.000
    Si3439   Si       0.54237    0.35130    0.86227    1.000
    Si3440   Si       0.54846    0.35743    0.75487    1.000
    Si3441   Si       0.59880    0.30311    0.83735    1.000
    N3442    N        0.61928    0.33576    0.82043    1.000
    Si3443   Si       0.72736    0.34474    0.78908    1.000
    N3444    N        0.68581    0.33662    0.79909    1.000
    Si3445   Si       0.69386    0.31434    0.83582    1.000
    Si3446   Si       0.64648    0.33600    0.78269    1.000
    N3447    N        0.73657    0.31749    0.82770    1.000
    N3448    N        0.68302    0.34005    0.86814    1.000
    N3449    N        0.63065    0.30078    0.76162    1.000
    N3450    N        0.59664    0.34304    0.95293    1.000
    Si3451   Si       0.52168    0.32484    0.92983    1.000
    N3452    N        0.54172    0.35787    0.90641    1.000
    N3453    N        0.52089    0.33518    0.97133    1.000
    Si3454   Si       0.59072    0.29974    0.95071    1.000
    Si3455   Si       0.64519    0.32697    0.88966    1.000
    N3456    N        0.66665    0.32348    0.92658    1.000
    Si3457   Si       0.70074    0.35215    0.92148    1.000
    Si3458   Si       0.56142    0.38904    0.03257    1.000
    N3459    N        0.51858    0.39463    0.01593    1.000
    Si3460   Si       0.54030    0.41099    0.10643    1.000
    N3461    N        0.53270    0.36655    0.10785    1.000
    N3462    N        0.58736    0.40376    0.99978    1.000
    N3463    N        0.55795    0.41446    0.06678    1.000
    Si3464   Si       0.64489    0.36797    0.09860    1.000
    Si3465   Si       0.65355    0.37589    0.03765    1.000
    N3466    N        0.68258    0.39988    0.01740    1.000
    N3467    N        0.63096    0.39872    0.06808    1.000
    Si3468   Si       0.72260    0.40668    0.03759    1.000
    N3469    N        0.73838    0.39717    0.07651    1.000
    N3470    N        0.51569    0.37266    0.17235    1.000
    N3471    N        0.57261    0.40637    0.13777    1.000
    N3472    N        0.55325    0.38642    0.22581    1.000
    Si3473   Si       0.51704    0.39881    0.20538    1.000
    Si3474   Si       0.55233    0.36661    0.14611    1.000
    N3475    N        0.65937    0.40066    0.12550    1.000
    N3476    N        0.73643    0.37274    0.23360    1.000
    N3477    N        0.67283    0.37540    0.19350    1.000
    Si3478   Si       0.66425    0.40945    0.16684    1.000
    Si3479   Si       0.69321    0.36647    0.23183    1.000
    N3480    N        0.54782    0.37772    0.30556    1.000
    Si3481   Si       0.59087    0.38405    0.31230    1.000
    N3482    N        0.60283    0.40759    0.27456    1.000
    N3483    N        0.60518    0.40976    0.34365    1.000
    Si3484   Si       0.52407    0.41458    0.30419    1.000
    Si3485   Si       0.56752    0.41763    0.24894    1.000
    N3486    N        0.67077    0.38431    0.26252    1.000
    Si3487   Si       0.62912    0.37158    0.26386    1.000
    N3488    N        0.72234    0.39497    0.30498    1.000
    Si3489   Si       0.64832    0.40882    0.34581    1.000
    N3490    N        0.66278    0.37025    0.34257    1.000
    Si3491   Si       0.69138    0.41531    0.28481    1.000
    N3492    N        0.55537    0.36530    0.37696    1.000
    N3493    N        0.50341    0.39707    0.41123    1.000
    N3494    N        0.55894    0.37621    0.45101    1.000
    Si3495   Si       0.54442    0.38835    0.41250    1.000
    Si3496   Si       0.58029    0.41508    0.45686    1.000
    Si3497   Si       0.73730    0.38308    0.42008    1.000
    N3498    N        0.66421    0.36755    0.44277    1.000
    N3499    N        0.70312    0.38469    0.39251    1.000
    Si3500   Si       0.67046    0.40309    0.41602    1.000
    N3501    N        0.62070    0.41039    0.47217    1.000
    Si3502   Si       0.63851    0.37129    0.47894    1.000
    N3503    N        0.52973    0.39387    0.52561    1.000
    Si3504   Si       0.55775    0.38553    0.55894    1.000
    N3505    N        0.52982    0.38332    0.59045    1.000
    N3506    N        0.58188    0.42067    0.55136    1.000
    N3507    N        0.72316    0.40445    0.53750    1.000
    N3508    N        0.66239    0.37596    0.51531    1.000
    Si3509   Si       0.67965    0.41000    0.53329    1.000
    N3510    N        0.65824    0.42050    0.57128    1.000
    N3511    N        0.61689    0.37157    0.62417    1.000
    N3512    N        0.55515    0.40257    0.65546    1.000
    Si3513   Si       0.59701    0.40454    0.64333    1.000
    Si3514   Si       0.56723    0.39448    0.70250    1.000
    Si3515   Si       0.53585    0.37014    0.63276    1.000
    N3516    N        0.58396    0.37928    0.74254    1.000
    N3517    N        0.60948    0.40533    0.68557    1.000
    N3518    N        0.53696    0.36246    0.71231    1.000
    Si3519   Si       0.70193    0.41872    0.67871    1.000
    N3520    N        0.67797    0.41712    0.71688    1.000
    N3521    N        0.67429    0.40565    0.64722    1.000
    N3522    N        0.73335    0.38843    0.68651    1.000
    Si3523   Si       0.65680    0.36531    0.63881    1.000
    N3524    N        0.56809    0.38270    0.84920    1.000
    N3525    N        0.53333    0.38174    0.78850    1.000
    Si3526   Si       0.55895    0.40948    0.81431    1.000
    Si3527   Si       0.49237    0.36597    0.80096    1.000
    N3528    N        0.59803    0.41660    0.79836    1.000
    Si3529   Si       0.61390    0.40602    0.75982    1.000
    N3530    N        0.50435    0.35879    0.84198    1.000
    Si3531   Si       0.61158    0.36906    0.84910    1.000
    N3532    N        0.64595    0.39484    0.84324    1.000
    Si3533   Si       0.68540    0.38439    0.86142    1.000
    N3534    N        0.64628    0.37700    0.76468    1.000
    Si3535   Si       0.68345    0.40125    0.75672    1.000
    N3536    N        0.72240    0.38098    0.75525    1.000
    N3537    N        0.71262    0.41348    0.84497    1.000
    N3538    N        0.57095    0.40526    0.93284    1.000
    Si3539   Si       0.52655    0.39618    0.92267    1.000
    Si3540   Si       0.49896    0.36992    0.98760    1.000
    Si3541   Si       0.58371    0.36511    0.91940    1.000
    N3542    N        0.49224    0.38981    0.94750    1.000
    Si3543   Si       0.61264    0.37282    0.97932    1.000
    N3544    N        0.62052    0.36372    0.89352    1.000
    N3545    N        0.68710    0.39231    0.90474    1.000
    Si3546   Si       0.68160    0.40169    0.97353    1.000
    Si3547   Si       0.64321    0.39550    0.91509    1.000
    N3548    N        0.64286    0.39528    0.95865    1.000
    N3549    N        0.70473    0.36771    0.96121    1.000
    Si3550   Si       0.50458    0.43498    0.02562    1.000
    N3551    N        0.60361    0.46039    0.03451    1.000
    N3552    N        0.51150    0.44159    0.11754    1.000
    Si3553   Si       0.58877    0.44398    0.07210    1.000
    N3554    N        0.61569    0.45516    0.10500    1.000
    N3555    N        0.49733    0.46752    0.05672    1.000
    N3556    N        0.53658    0.45864    0.00162    1.000
    Si3557   Si       0.57782    0.44634    0.99971    1.000
    N3558    N        0.72336    0.44973    0.02563    1.000
    N3559    N        0.67629    0.45681    0.07776    1.000
    Si3560   Si       0.64851    0.42975    0.09425    1.000
    N3561    N        0.73799    0.46354    0.10488    1.000
    Si3562   Si       0.60039    0.43847    0.14365    1.000
    N3563    N        0.51983    0.44135    0.19764    1.000
    Si3564   Si       0.55541    0.46395    0.19221    1.000
    N3565    N        0.58176    0.44778    0.22241    1.000
    N3566    N        0.57928    0.47303    0.15603    1.000
    Si3567   Si       0.74166    0.43228    0.17496    1.000
    Si3568   Si       0.62350    0.45833    0.21205    1.000
    N3569    N        0.63031    0.43588    0.17662    1.000
    N3570    N        0.69843    0.43405    0.17059    1.000
    N3571    N        0.53942    0.44176    0.27389    1.000
    N3572    N        0.52290    0.43182    0.34484    1.000
    N3573    N        0.58071    0.47405    0.36575    1.000
    Si3574   Si       0.53670    0.47295    0.35141    1.000
    N3575    N        0.59528    0.47334    0.29865    1.000
    N3576    N        0.66180    0.43598    0.31186    1.000
    Si3577   Si       0.62462    0.44467    0.28531    1.000
    N3578    N        0.71166    0.43635    0.25404    1.000
    Si3579   Si       0.68696    0.47429    0.24856    1.000
    N3580    N        0.64682    0.45631    0.24929    1.000
    N3581    N        0.50331    0.46645    0.44895    1.000
    N3582    N        0.55901    0.44175    0.48108    1.000
    Si3583   Si       0.59994    0.43417    0.37863    1.000
    N3584    N        0.57425    0.42217    0.41342    1.000
    N3585    N        0.67822    0.43572    0.44387    1.000
    N3586    N        0.72956    0.47310    0.41597    1.000
    Si3587   Si       0.64963    0.44172    0.47566    1.000
    Si3588   Si       0.71856    0.44991    0.44967    1.000
    N3589    N        0.64352    0.42559    0.38787    1.000
    Si3590   Si       0.54950    0.43591    0.52215    1.000
    N3591    N        0.60817    0.43808    0.61720    1.000
    N3592    N        0.54558    0.47715    0.53888    1.000
    N3593    N        0.48800    0.46846    0.58367    1.000
    N3594    N        0.48804    0.45935    0.51735    1.000
    Si3595   Si       0.61778    0.43747    0.57400    1.000
    N3596    N        0.67626    0.44620    0.50975    1.000
    N3597    N        0.73114    0.47254    0.54887    1.000
    N3598    N        0.67347    0.46696    0.61637    1.000
    Si3599   Si       0.68152    0.42493    0.60859    1.000
    N3600    N        0.72364    0.42258    0.59943    1.000
    N3601    N        0.62091    0.47848    0.56182    1.000
    N3602    N        0.54278    0.43007    0.70910    1.000
    N3603    N        0.57570    0.46974    0.66530    1.000
    Si3604   Si       0.54132    0.44316    0.66808    1.000
    Si3605   Si       0.52825    0.46282    0.73248    1.000
    N3606    N        0.51154    0.46113    0.64080    1.000
    N3607    N        0.64630    0.46580    0.67527    1.000
    Si3608   Si       0.61392    0.46997    0.64549    1.000
    Si3609   Si       0.64027    0.43404    0.70344    1.000
    N3610    N        0.71558    0.45957    0.67099    1.000
    N3611    N        0.61784    0.44401    0.73907    1.000
    N3612    N        0.54448    0.44634    0.83175    1.000
    N3613    N        0.55935    0.47505    0.76286    1.000
    Si3614   Si       0.53738    0.45683    0.87365    1.000
    N3615    N        0.67534    0.42946    0.79014    1.000
    N3616    N        0.63328    0.46187    0.83767    1.000
    Si3617   Si       0.70837    0.44500    0.81502    1.000
    Si3618   Si       0.63777    0.42550    0.81492    1.000
    N3619    N        0.59584    0.46485    0.96355    1.000
    Si3620   Si       0.59031    0.44305    0.92552    1.000
    N3621    N        0.56951    0.47124    0.89860    1.000
    N3622    N        0.51602    0.42427    0.89226    1.000
    Si3623   Si       0.70918    0.43032    0.91265    1.000
    N3624    N        0.70288    0.43585    0.95725    1.000
    Si3625   Si       0.64383    0.46241    0.87909    1.000
    Si3626   Si       0.72876    0.46024    0.98401    1.000
    N3627    N        0.68463    0.46372    0.89583    1.000
    N3628    N        0.62735    0.43351    0.90694    1.000
    Si3629   Si       0.59631    0.49592    0.10642    1.000
    N3630    N        0.59966    0.52251    0.00492    1.000
    N3631    N        0.49605    0.51639    0.10913    1.000
    N3632    N        0.55932    0.47927    0.08901    1.000
    Si3633   Si       0.51613    0.48064    0.09332    1.000
    N3634    N        0.61490    0.51712    0.07259    1.000
    Si3635   Si       0.62264    0.49967    0.03223    1.000
    N3636    N        0.71198    0.50954    0.06766    1.000
    N3637    N        0.66437    0.49620    0.01688    1.000
    Si3638   Si       0.70085    0.48500    0.10179    1.000
    Si3639   Si       0.69250    0.47803    0.04304    1.000
    Si3640   Si       0.53296    0.52707    0.23221    1.000
    Si3641   Si       0.58608    0.51711    0.17426    1.000
    N3642    N        0.54700    0.50619    0.19749    1.000
    Si3643   Si       0.60596    0.53190    0.23236    1.000
    N3644    N        0.61021    0.52506    0.13689    1.000
    N3645    N        0.61606    0.50034    0.20401    1.000
    Si3646   Si       0.69730    0.47829    0.17229    1.000
    N3647    N        0.68695    0.49677    0.21220    1.000
    N3648    N        0.68191    0.50045    0.13730    1.000
    Si3649   Si       0.65317    0.53466    0.14059    1.000
    N3650    N        0.53123    0.49623    0.31691    1.000
    N3651    N        0.50403    0.51221    0.26187    1.000
    N3652    N        0.57020    0.52065    0.25862    1.000
    Si3653   Si       0.60289    0.49548    0.33433    1.000
    Si3654   Si       0.50800    0.53128    0.30120    1.000
    Si3655   Si       0.55655    0.48338    0.28210    1.000
    N3656    N        0.58966    0.53692    0.32714    1.000
    N3657    N        0.64450    0.49877    0.34336    1.000
    N3658    N        0.69340    0.49415    0.28558    1.000
    Si3659   Si       0.73331    0.51553    0.28511    1.000
    N3660    N        0.71441    0.48247    0.35155    1.000
    Si3661   Si       0.67884    0.48000    0.32328    1.000
    Si3662   Si       0.57002    0.50596    0.39919    1.000
    N3663    N        0.56939    0.49982    0.44319    1.000
    N3664    N        0.52767    0.49220    0.38856    1.000
    N3665    N        0.52285    0.51468    0.49059    1.000
    Si3666   Si       0.49078    0.48162    0.41087    1.000
    Si3667   Si       0.54056    0.48131    0.46820    1.000
    Si3668   Si       0.61160    0.50587    0.44934    1.000
    N3669    N        0.71838    0.48880    0.47637    1.000
    N3670    N        0.62833    0.47957    0.48002    1.000
    Si3671   Si       0.71561    0.50569    0.39025    1.000
    N3672    N        0.67984    0.52858    0.39557    1.000
    Si3673   Si       0.64106    0.52820    0.37711    1.000
    N3674    N        0.61576    0.50826    0.40562    1.000
    Si3675   Si       0.50825    0.49718    0.52664    1.000
    N3676    N        0.55899    0.50372    0.59288    1.000
    Si3677   Si       0.51919    0.49115    0.60829    1.000
    N3678    N        0.59729    0.52493    0.52442    1.000
    Si3679   Si       0.57945    0.49934    0.55435    1.000
    N3680    N        0.50058    0.52971    0.61796    1.000
    Si3681   Si       0.58382    0.52885    0.61555    1.000
    N3682    N        0.67273    0.51071    0.52965    1.000
    Si3683   Si       0.64952    0.49609    0.59282    1.000
    Si3684   Si       0.63167    0.49698    0.52045    1.000
    N3685    N        0.67140    0.53511    0.59367    1.000
    Si3686   Si       0.70192    0.48023    0.51609    1.000
    N3687    N        0.73594    0.49985    0.61695    1.000
    Si3688   Si       0.70738    0.53329    0.62105    1.000
    N3689    N        0.62114    0.50811    0.62427    1.000
    N3690    N        0.59664    0.51301    0.71344    1.000
    Si3691   Si       0.56558    0.50707    0.68501    1.000
    N3692    N        0.52862    0.49677    0.70284    1.000
    Si3693   Si       0.59859    0.48354    0.74620    1.000
    Si3694   Si       0.68219    0.48175    0.65683    1.000
    N3695    N        0.68869    0.52458    0.65886    1.000
    N3696    N        0.58195    0.50581    0.82320    1.000
    N3697    N        0.50776    0.49876    0.80891    1.000
    Si3698   Si       0.54829    0.48112    0.80523    1.000
    Si3699   Si       0.50392    0.53672    0.78849    1.000
    Si3700   Si       0.62328    0.49906    0.81826    1.000
    N3701    N        0.62724    0.50367    0.77456    1.000
    Si3702   Si       0.69133    0.52091    0.81500    1.000
    N3703    N        0.68944    0.52302    0.77214    1.000
    N3704    N        0.70654    0.48514    0.83341    1.000
    N3705    N        0.65163    0.52896    0.82855    1.000
    Si3706   Si       0.72738    0.53214    0.75574    1.000
    Si3707   Si       0.65126    0.53763    0.76249    1.000
    N3708    N        0.50592    0.48611    0.87419    1.000
    Si3709   Si       0.58154    0.51335    0.89472    1.000
    N3710    N        0.51101    0.49819    0.94755    1.000
    N3711    N        0.57990    0.52940    0.93824    1.000
    Si3712   Si       0.60796    0.50618    0.96378    1.000
    Si3713   Si       0.50446    0.48240    0.98698    1.000
    Si3714   Si       0.53575    0.53423    0.94851    1.000
    Si3715   Si       0.70775    0.49579    0.87736    1.000
    N3716    N        0.72226    0.50356    0.97915    1.000
    N3717    N        0.65022    0.51564    0.95281    1.000
    Si3718   Si       0.64989    0.53022    0.91164    1.000
    N3719    N        0.68706    0.53361    0.88695    1.000
    N3720    N        0.62402    0.50181    0.89025    1.000
    Si3721   Si       0.68121    0.52039    0.98556    1.000
    N3722    N        0.51709    0.55948    0.05318    1.000
    N3723    N        0.57833    0.58110    0.08795    1.000
    Si3724   Si       0.60463    0.56649    0.01283    1.000
    Si3725   Si       0.49893    0.55392    0.01460    1.000
    Si3726   Si       0.55067    0.58831    0.05459    1.000
    N3727    N        0.49465    0.59225    0.10894    1.000
    N3728    N        0.57119    0.59347    0.01707    1.000
    Si3729   Si       0.49066    0.55508    0.08799    1.000
    Si3730   Si       0.61810    0.55869    0.08371    1.000
    N3731    N        0.65493    0.56151    0.10577    1.000
    N3732    N        0.62861    0.57960    0.04566    1.000
    N3733    N        0.71252    0.58002    0.06143    1.000
    Si3734   Si       0.71684    0.58479    0.02023    1.000
    Si3735   Si       0.68690    0.59078    0.09436    1.000
    Si3736   Si       0.74257    0.54086    0.06361    1.000
    Si3737   Si       0.55211    0.58420    0.19597    1.000
    N3738    N        0.52018    0.56496    0.21794    1.000
    N3739    N        0.58961    0.55786    0.20104    1.000
    N3740    N        0.54464    0.59295    0.15475    1.000
    Si3741   Si       0.50192    0.59617    0.15102    1.000
    N3742    N        0.65562    0.55457    0.17970    1.000
    N3743    N        0.64390    0.54742    0.24245    1.000
    N3744    N        0.70911    0.56273    0.22596    1.000
    Si3745   Si       0.62321    0.58249    0.18833    1.000
    Si3746   Si       0.67386    0.53680    0.21515    1.000
    N3747    N        0.53468    0.56537    0.29818    1.000
    Si3748   Si       0.58951    0.56856    0.35912    1.000
    Si3749   Si       0.57446    0.55138    0.29001    1.000
    N3750    N        0.59379    0.58563    0.26963    1.000
    Si3751   Si       0.63609    0.58738    0.25703    1.000
    Si3752   Si       0.70851    0.58548    0.26399    1.000
    N3753    N        0.73346    0.55924    0.28957    1.000
    N3754    N        0.49981    0.57037    0.37596    1.000
    Si3755   Si       0.53582    0.57761    0.40289    1.000
    N3756    N        0.51394    0.56372    0.43950    1.000
    Si3757   Si       0.52634    0.55772    0.48097    1.000
    N3758    N        0.56471    0.54925    0.38926    1.000
    N3759    N        0.56394    0.57760    0.48292    1.000
    N3760    N        0.63152    0.57141    0.37008    1.000
    N3761    N        0.73580    0.54133    0.41032    1.000
    N3762    N        0.67464    0.58768    0.43692    1.000
    N3763    N        0.62180    0.54554    0.46373    1.000
    Si3764   Si       0.69681    0.56598    0.40735    1.000
    Si3765   Si       0.63800    0.58511    0.45907    1.000
    N3766    N        0.69776    0.59423    0.37503    1.000
    N3767    N        0.74097    0.56019    0.47924    1.000
    N3768    N        0.50102    0.57813    0.51284    1.000
    N3769    N        0.60023    0.56380    0.59988    1.000
    Si3770   Si       0.60130    0.56257    0.49903    1.000
    N3771    N        0.48844    0.58737    0.57966    1.000
    N3772    N        0.67879    0.58450    0.54803    1.000
    Si3773   Si       0.68761    0.54268    0.55354    1.000
    N3774    N        0.73002    0.57046    0.61715    1.000
    Si3775   Si       0.64066    0.55780    0.61612    1.000
    N3776    N        0.73115    0.53884    0.55587    1.000
    Si3777   Si       0.49399    0.57814    0.72282    1.000
    N3778    N        0.51632    0.56790    0.68556    1.000
    Si3779   Si       0.55559    0.57685    0.67113    1.000
    N3780    N        0.58543    0.58321    0.70448    1.000
    N3781    N        0.49379    0.53963    0.74280    1.000
    N3782    N        0.56868    0.53809    0.65609    1.000
    N3783    N        0.63092    0.56549    0.66111    1.000
    N3784    N        0.69273    0.59534    0.67893    1.000
    Si3785   Si       0.69214    0.55034    0.69426    1.000
    N3786    N        0.72868    0.54349    0.71384    1.000
    N3787    N        0.65752    0.54961    0.71988    1.000
    Si3788   Si       0.61628    0.55194    0.70094    1.000
    N3789    N        0.54065    0.55596    0.79967    1.000
    Si3790   Si       0.57035    0.54728    0.83000    1.000
    N3791    N        0.59856    0.58066    0.83199    1.000
    N3792    N        0.49432    0.57835    0.86449    1.000
    N3793    N        0.56213    0.54389    0.87193    1.000
    Si3794   Si       0.53870    0.59895    0.78035    1.000
    N3795    N        0.71547    0.55529    0.82526    1.000
    Si3796   Si       0.63975    0.57248    0.82749    1.000
    N3797    N        0.64383    0.57600    0.78326    1.000
    Si3798   Si       0.70205    0.56755    0.86404    1.000
    N3799    N        0.66480    0.59135    0.85910    1.000
    Si3800   Si       0.59844    0.57017    0.93970    1.000
    Si3801   Si       0.53381    0.57530    0.88313    1.000
    N3802    N        0.52869    0.55943    0.98336    1.000
    N3803    N        0.51596    0.55769    0.91732    1.000
    N3804    N        0.62744    0.56691    0.90823    1.000
    N3805    N        0.73900    0.57792    0.88406    1.000
    N3806    N        0.62189    0.57666    0.97482    1.000
    N3807    N        0.68973    0.56274    0.99197    1.000
    N3808    N        0.53044    0.62590    0.05772    1.000
    Si3809   Si       0.49601    0.62779    0.08464    1.000
    N3810    N        0.58357    0.64632    0.11830    1.000
    N3811    N        0.61194    0.65250    0.04844    1.000
    Si3812   Si       0.64348    0.62049    0.04507    1.000
    N3813    N        0.67177    0.62851    0.07710    1.000
    N3814    N        0.66594    0.62399    0.00796    1.000
    N3815    N        0.55678    0.62245    0.21758    1.000
    Si3816   Si       0.57540    0.60291    0.12447    1.000
    Si3817   Si       0.61236    0.64676    0.15100    1.000
    N3818    N        0.61243    0.60246    0.15280    1.000
    Si3819   Si       0.62401    0.65322    0.22386    1.000
    N3820    N        0.70780    0.64876    0.18228    1.000
    N3821    N        0.70868    0.59996    0.13009    1.000
    N3822    N        0.63449    0.61013    0.21908    1.000
    Si3823   Si       0.73275    0.62367    0.15483    1.000
    N3824    N        0.54915    0.63476    0.29018    1.000
    Si3825   Si       0.57587    0.62386    0.25876    1.000
    Si3826   Si       0.53497    0.60389    0.31678    1.000
    N3827    N        0.49374    0.61621    0.32260    1.000
    N3828    N        0.56358    0.60222    0.34949    1.000
    N3829    N        0.60958    0.65486    0.26465    1.000
    Si3830   Si       0.73253    0.61204    0.35288    1.000
    N3831    N        0.64880    0.63375    0.33607    1.000
    Si3832   Si       0.67512    0.63555    0.30254    1.000
    N3833    N        0.71638    0.62790    0.31681    1.000
    N3834    N        0.72879    0.62309    0.24971    1.000
    N3835    N        0.67085    0.60121    0.27742    1.000
    Si3836   Si       0.55789    0.63795    0.37708    1.000
    Si3837   Si       0.56844    0.61272    0.45670    1.000
    N3838    N        0.55087    0.61659    0.41409    1.000
    N3839    N        0.55824    0.64601    0.48303    1.000
    N3840    N        0.60809    0.61190    0.44083    1.000
    Si3841   Si       0.61521    0.64782    0.41735    1.000
    Si3842   Si       0.65780    0.60624    0.36667    1.000
    N3843    N        0.65438    0.63983    0.39949    1.000
    Si3844   Si       0.68321    0.63402    0.43162    1.000
    N3845    N        0.72568    0.62743    0.42955    1.000
    N3846    N        0.59961    0.63425    0.60362    1.000
    N3847    N        0.51122    0.64353    0.53109    1.000
    Si3848   Si       0.55463    0.63634    0.52587    1.000
    N3849    N        0.55423    0.60233    0.55687    1.000
    Si3850   Si       0.57484    0.59909    0.59582    1.000
    N3851    N        0.50576    0.64692    0.61332    1.000
    Si3852   Si       0.50987    0.60209    0.54601    1.000
    N3853    N        0.64817    0.63731    0.55612    1.000
    N3854    N        0.70053    0.63966    0.51397    1.000
    Si3855   Si       0.66308    0.61431    0.52126    1.000
    Si3856   Si       0.67845    0.61553    0.57845    1.000
    N3857    N        0.71641    0.62802    0.59107    1.000
    N3858    N        0.66633    0.59853    0.61844    1.000
    N3859    N        0.63208    0.59375    0.50102    1.000
    N3860    N        0.51992    0.64164    0.68081    1.000
    Si3861   Si       0.54112    0.64354    0.64203    1.000
    Si3862   Si       0.59299    0.61509    0.73326    1.000
    Si3863   Si       0.53068    0.64543    0.72301    1.000
    N3864    N        0.55367    0.60194    0.63541    1.000
    N3865    N        0.51950    0.60713    0.74308    1.000
    N3866    N        0.57273    0.65123    0.72212    1.000
    N3867    N        0.73521    0.63282    0.65643    1.000
    N3868    N        0.64086    0.64012    0.66799    1.000
    Si3869   Si       0.65406    0.59925    0.66222    1.000
    Si3870   Si       0.65222    0.65502    0.70629    1.000
    N3871    N        0.63496    0.62572    0.73481    1.000
    Si3872   Si       0.71140    0.60660    0.63246    1.000
    Si3873   Si       0.72110    0.62648    0.69686    1.000
    Si3874   Si       0.59785    0.62019    0.81314    1.000
    Si3875   Si       0.53953    0.63923    0.84683    1.000
    N3876    N        0.52094    0.61577    0.81661    1.000
    N3877    N        0.58036    0.61041    0.77509    1.000
    N3878    N        0.57609    0.65426    0.82967    1.000
    N3879    N        0.69593    0.61766    0.77811    1.000
    N3880    N        0.63712    0.63847    0.80571    1.000
    Si3881   Si       0.65395    0.61586    0.77215    1.000
    Si3882   Si       0.71677    0.64646    0.80069    1.000
    N3883    N        0.55082    0.61491    0.88160    1.000
    N3884    N        0.51502    0.63342    0.97875    1.000
    Si3885   Si       0.57368    0.63457    0.91592    1.000
    N3886    N        0.56816    0.60159    0.94370    1.000
    Si3887   Si       0.54514    0.60101    0.98292    1.000
    Si3888   Si       0.69716    0.64154    0.93259    1.000
    Si3889   Si       0.64638    0.60358    0.89814    1.000
    N3890    N        0.61600    0.63639    0.90047    1.000
    N3891    N        0.67308    0.60677    0.93707    1.000
    Si3892   Si       0.66254    0.59062    0.97647    1.000
    N3893    N        0.55698    0.68862    0.06866    1.000
    Si3894   Si       0.60082    0.68347    0.01862    1.000
    Si3895   Si       0.59176    0.67077    0.08399    1.000
    N3896    N        0.50263    0.68978    0.03588    1.000
    Si3897   Si       0.53750    0.66422    0.03839    1.000
    N3898    N        0.56043    0.67288    0.00404    1.000
    N3899    N        0.49822    0.66662    0.10352    1.000
    N3900    N        0.61454    0.70389    0.10028    1.000
    N3901    N        0.68157    0.68548    0.03443    1.000
    N3902    N        0.68491    0.69478    0.09897    1.000
    Si3903   Si       0.69392    0.66434    0.07145    1.000
    N3904    N        0.73723    0.65854    0.06641    1.000
    Si3905   Si       0.66604    0.66532    0.99955    1.000
    Si3906   Si       0.55838    0.66281    0.20330    1.000
    N3907    N        0.53562    0.68551    0.17448    1.000
    Si3908   Si       0.50243    0.67132    0.14761    1.000
    N3909    N        0.55213    0.68372    0.24061    1.000
    N3910    N        0.59942    0.66328    0.19016    1.000
    N3911    N        0.72242    0.68616    0.24732    1.000
    Si3912   Si       0.64992    0.69985    0.12437    1.000
    N3913    N        0.65108    0.66594    0.14970    1.000
    N3914    N        0.65869    0.67853    0.21901    1.000
    Si3915   Si       0.67914    0.67882    0.18095    1.000
    N3916    N        0.70474    0.71336    0.17763    1.000
    Si3917   Si       0.53891    0.67740    0.28240    1.000
    Si3918   Si       0.57828    0.69083    0.35026    1.000
    N3919    N        0.56054    0.70189    0.30961    1.000
    Si3920   Si       0.50345    0.69988    0.35413    1.000
    N3921    N        0.53588    0.67076    0.35807    1.000
    N3922    N        0.49559    0.67850    0.27809    1.000
    Si3923   Si       0.62171    0.68925    0.28903    1.000
    N3924    N        0.61994    0.69618    0.33260    1.000
    N3925    N        0.66464    0.67586    0.28635    1.000
    Si3926   Si       0.64047    0.66834    0.36346    1.000
    Si3927   Si       0.68018    0.69493    0.25066    1.000
    Si3928   Si       0.56552    0.68901    0.47193    1.000
    N3929    N        0.60601    0.67888    0.44593    1.000
    N3930    N        0.59644    0.65913    0.37860    1.000
    N3931    N        0.67137    0.66590    0.46028    1.000
    N3932    N        0.72623    0.69620    0.41810    1.000
    N3933    N        0.65974    0.70449    0.37934    1.000
    Si3934   Si       0.63741    0.69503    0.47085    1.000
    Si3935   Si       0.58247    0.70347    0.54059    1.000
    N3936    N        0.58383    0.66097    0.54475    1.000
    Si3937   Si       0.51026    0.70810    0.53790    1.000
    N3938    N        0.51876    0.69865    0.49408    1.000
    N3939    N        0.61599    0.71060    0.56418    1.000
    Si3940   Si       0.61843    0.66241    0.57471    1.000
    N3941    N        0.65684    0.70212    0.50884    1.000
    N3942    N        0.72759    0.70868    0.50060    1.000
    Si3943   Si       0.69234    0.67958    0.49816    1.000
    Si3944   Si       0.61259    0.65775    0.63831    1.000
    N3945    N        0.50097    0.67975    0.72742    1.000
    N3946    N        0.57572    0.67382    0.65640    1.000
    Si3947   Si       0.58940    0.68401    0.69911    1.000
    Si3948   Si       0.48937    0.67305    0.68510    1.000
    N3949    N        0.51044    0.70780    0.66438    1.000
    Si3950   Si       0.71789    0.68721    0.73499    1.000
    N3951    N        0.69470    0.65807    0.71437    1.000
    N3952    N        0.63823    0.68279    0.61304    1.000
    N3953    N        0.63017    0.69177    0.71584    1.000
    Si3954   Si       0.58708    0.69372    0.84175    1.000
    N3955    N        0.51067    0.66684    0.85748    1.000
    Si3956   Si       0.51728    0.70904    0.86064    1.000
    N3957    N        0.69353    0.67307    0.82565    1.000
    Si3958   Si       0.65175    0.67750    0.81510    1.000
    N3959    N        0.63010    0.69027    0.85188    1.000
    Si3960   Si       0.70511    0.68465    0.86763    1.000
    N3961    N        0.64428    0.70608    0.78295    1.000
    N3962    N        0.73842    0.67275    0.77208    1.000
    N3963    N        0.56141    0.71311    0.87182    1.000
    Si3964   Si       0.53455    0.67090    0.96891    1.000
    N3965    N        0.55754    0.66958    0.93274    1.000
    Si3966   Si       0.57324    0.70640    0.91618    1.000
    N3967    N        0.51776    0.71048    0.96709    1.000
    N3968    N        0.73607    0.70474    0.92834    1.000
    N3969    N        0.62996    0.68454    0.98728    1.000
    N3970    N        0.61648    0.70328    0.91965    1.000
    N3971    N        0.69005    0.66911    0.96554    1.000
    Si3972   Si       0.63630    0.67474    0.89281    1.000
    Si3973   Si       0.70346    0.70815    0.95763    1.000
    N3974    N        0.67911    0.66285    0.89676    1.000
    N3975    N        0.53461    0.74837    0.02746    1.000
    N3976    N        0.56279    0.75300    0.08836    1.000
    Si3977   Si       0.60291    0.74001    0.07757    1.000
    Si3978   Si       0.53521    0.72745    0.06731    1.000
    N3979    N        0.60697    0.72236    0.03824    1.000
    Si3980   Si       0.50571    0.72422    0.00571    1.000
    N3981    N        0.49650    0.72971    0.08841    1.000
    Si3982   Si       0.61946    0.75445    0.01346    1.000
    N3983    N        0.66245    0.75673    0.01917    1.000
    N3984    N        0.71898    0.73838    0.06436    1.000
    Si3985   Si       0.69369    0.72745    0.02847    1.000
    Si3986   Si       0.71599    0.72601    0.10347    1.000
    N3987    N        0.63155    0.76690    0.09210    1.000
    N3988    N        0.72227    0.72418    0.99296    1.000
    N3989    N        0.52198    0.75603    0.14694    1.000
    N3990    N        0.56111    0.74160    0.20441    1.000
    Si3991   Si       0.52604    0.72804    0.18181    1.000
    N3992    N        0.49457    0.73684    0.21093    1.000
    N3993    N        0.58861    0.76632    0.14834    1.000
    Si3994   Si       0.56927    0.72297    0.24382    1.000
    Si3995   Si       0.50784    0.76156    0.24315    1.000
    N3996    N        0.65021    0.73403    0.15052    1.000
    Si3997   Si       0.62967    0.76786    0.13511    1.000
    N3998    N        0.70885    0.76018    0.12788    1.000
    Si3999   Si       0.68731    0.75158    0.16488    1.000
    N4000    N        0.62420    0.77279    0.21395    1.000
    N4001    N        0.54064    0.74492    0.26809    1.000
    Si4002   Si       0.54804    0.74307    0.31098    1.000
    N4003    N        0.50836    0.73635    0.32969    1.000
    N4004    N        0.60696    0.72416    0.26313    1.000
    Si4005   Si       0.72140    0.74497    0.33487    1.000
    N4006    N        0.67884    0.74689    0.32599    1.000
    Si4007   Si       0.64501    0.72992    0.34960    1.000
    Si4008   Si       0.69199    0.76115    0.28573    1.000
    N4009    N        0.67208    0.73955    0.25530    1.000
    Si4010   Si       0.63193    0.75886    0.25434    1.000
    N4011    N        0.73070    0.74172    0.29143    1.000
    N4012    N        0.62160    0.76553    0.36274    1.000
    N4013    N        0.54026    0.77153    0.39989    1.000
    N4014    N        0.57012    0.72474    0.37575    1.000
    Si4015   Si       0.57573    0.76839    0.37421    1.000
    Si4016   Si       0.50053    0.73806    0.47997    1.000
    Si4017   Si       0.54021    0.72751    0.40809    1.000
    Si4018   Si       0.57729    0.75272    0.47879    1.000
    N4019    N        0.55535    0.72535    0.44816    1.000
    N4020    N        0.50156    0.71521    0.39471    1.000
    Si4021   Si       0.65000    0.77132    0.45350    1.000
    N4022    N        0.70638    0.75291    0.40153    1.000
    N4023    N        0.65641    0.72895    0.44584    1.000
    Si4024   Si       0.68478    0.71715    0.41348    1.000
    Si4025   Si       0.54379    0.74949    0.58826    1.000
    N4026    N        0.50231    0.76488    0.59146    1.000
    N4027    N        0.54569    0.71796    0.55648    1.000
    Si4028   Si       0.59026    0.76951    0.61802    1.000
    N4029    N        0.58958    0.71469    0.49947    1.000
    Si4030   Si       0.72976    0.75186    0.50862    1.000
    Si4031   Si       0.64663    0.72949    0.53941    1.000
    Si4032   Si       0.70548    0.75711    0.57641    1.000
    N4033    N        0.67585    0.72753    0.57185    1.000
    Si4034   Si       0.64034    0.72139    0.59778    1.000
    N4035    N        0.63546    0.77212    0.53675    1.000
    N4036    N        0.73507    0.74300    0.60201    1.000
    N4037    N        0.63124    0.75851    0.61603    1.000
    Si4038   Si       0.55454    0.71263    0.65832    1.000
    N4039    N        0.56331    0.73699    0.62531    1.000
    Si4040   Si       0.49474    0.74653    0.67477    1.000
    Si4041   Si       0.55392    0.75836    0.71804    1.000
    N4042    N        0.56984    0.72271    0.69894    1.000
    Si4043   Si       0.49638    0.71934    0.74382    1.000
    N4044    N        0.70124    0.75414    0.66784    1.000
    N4045    N        0.69523    0.72498    0.74079    1.000
    Si4046   Si       0.65257    0.72067    0.74163    1.000
    Si4047   Si       0.73459    0.76150    0.64215    1.000
    N4048    N        0.64291    0.75931    0.72182    1.000
    Si4049   Si       0.71894    0.76160    0.74642    1.000
    Si4050   Si       0.54442    0.73841    0.79407    1.000
    N4051    N        0.51331    0.72298    0.82057    1.000
    N4052    N        0.58243    0.72055    0.80770    1.000
    N4053    N        0.53287    0.74053    0.75250    1.000
    N4054    N        0.60936    0.77391    0.78356    1.000
    Si4055   Si       0.62225    0.73716    0.80133    1.000
    N4056    N        0.65021    0.75384    0.82955    1.000
    Si4057   Si       0.67481    0.76072    0.86180    1.000
    N4058    N        0.49397    0.72646    0.89417    1.000
    Si4059   Si       0.57701    0.77282    0.95096    1.000
    Si4060   Si       0.51311    0.73648    0.93249    1.000
    N4061    N        0.55568    0.74683    0.92467    1.000
    Si4062   Si       0.55818    0.75838    0.87954    1.000
    N4063    N        0.60720    0.75016    0.97188    1.000
    N4064    N        0.70244    0.72658    0.87365    1.000
    N4065    N        0.67125    0.73311    0.94605    1.000
    Si4066   Si       0.73404    0.73858    0.90097    1.000
    Si4067   Si       0.63312    0.71629    0.95813    1.000
    N4068    N        0.59574    0.78915    0.02876    1.000
    Si4069   Si       0.55134    0.78881    0.02196    1.000
    N4070    N        0.53496    0.82068    0.04379    1.000
    N4071    N        0.55208    0.81937    0.11372    1.000
    Si4072   Si       0.60872    0.82950    0.02775    1.000
    N4073    N        0.72001    0.79561    0.02438    1.000
    Si4074   Si       0.68010    0.79471    0.00848    1.000
    N4075    N        0.69129    0.82115    0.10377    1.000
    N4076    N        0.65336    0.82757    0.02427    1.000
    Si4077   Si       0.72374    0.79894    0.11765    1.000
    Si4078   Si       0.55451    0.77510    0.12390    1.000
    N4079    N        0.56821    0.81303    0.18385    1.000
    N4080    N        0.52178    0.80283    0.23804    1.000
    Si4081   Si       0.58652    0.77300    0.19000    1.000
    Si4082   Si       0.54417    0.83339    0.21441    1.000
    Si4083   Si       0.65767    0.79830    0.20021    1.000
    N4084    N        0.69960    0.78240    0.19632    1.000
    N4085    N        0.65247    0.79629    0.15672    1.000
    N4086    N        0.50499    0.80367    0.31022    1.000
    Si4087   Si       0.54438    0.81586    0.32315    1.000
    Si4088   Si       0.49785    0.82129    0.27228    1.000
    N4089    N        0.56400    0.77823    0.33317    1.000
    Si4090   Si       0.61114    0.82874    0.30416    1.000
    N4091    N        0.62647    0.79421    0.28041    1.000
    N4092    N        0.69482    0.80201    0.27413    1.000
    Si4093   Si       0.73120    0.82556    0.33880    1.000
    N4094    N        0.67311    0.81505    0.36355    1.000
    Si4095   Si       0.73141    0.82155    0.26062    1.000
    Si4096   Si       0.65852    0.82257    0.26632    1.000
    N4097    N        0.73468    0.78260    0.34907    1.000
    Si4098   Si       0.51108    0.79025    0.42510    1.000
    N4099    N        0.59314    0.81342    0.40004    1.000
    N4100    N        0.51454    0.77785    0.46708    1.000
    Si4101   Si       0.61198    0.81357    0.43936    1.000
    N4102    N        0.60790    0.77815    0.46358    1.000
    Si4103   Si       0.71410    0.80863    0.46657    1.000
    Si4104   Si       0.63211    0.80427    0.37647    1.000
    N4105    N        0.65093    0.79721    0.41779    1.000
    Si4106   Si       0.69204    0.79358    0.39865    1.000
    N4107    N        0.67429    0.79295    0.47942    1.000
    N4108    N        0.71784    0.81735    0.42459    1.000
    N4109    N        0.74334    0.77784    0.47690    1.000
    Si4110   Si       0.59505    0.79051    0.53983    1.000
    N4111    N        0.50131    0.80875    0.53231    1.000
    N4112    N        0.57779    0.77704    0.57730    1.000
    N4113    N        0.56353    0.77842    0.51089    1.000
    Si4114   Si       0.52936    0.80242    0.49959    1.000
    Si4115   Si       0.66919    0.79547    0.52232    1.000
    N4116    N        0.69288    0.79251    0.60112    1.000
    Si4117   Si       0.72195    0.82179    0.61437    1.000
    N4118    N        0.63317    0.82916    0.60119    1.000
    N4119    N        0.70390    0.77351    0.53481    1.000
    N4120    N        0.57736    0.79355    0.72474    1.000
    N4121    N        0.58332    0.80359    0.64378    1.000
    N4122    N        0.51955    0.82045    0.63009    1.000
    Si4123   Si       0.54494    0.80875    0.66385    1.000
    N4124    N        0.52915    0.77197    0.68298    1.000
    Si4125   Si       0.67261    0.77491    0.69364    1.000
    N4126    N        0.69665    0.79331    0.72619    1.000
    N4127    N        0.65606    0.80333    0.66389    1.000
    Si4128   Si       0.65531    0.79415    0.62048    1.000
    Si4129   Si       0.58712    0.79133    0.81682    1.000
    Si4130   Si       0.51735    0.80603    0.78143    1.000
    N4131    N        0.54738    0.78224    0.80087    1.000
    Si4132   Si       0.51711    0.82139    0.85588    1.000
    N4133    N        0.58894    0.78150    0.86114    1.000
    N4134    N        0.49812    0.82701    0.81440    1.000
    Si4135   Si       0.73828    0.82652    0.78769    1.000
    N4136    N        0.63931    0.82464    0.75317    1.000
    N4137    N        0.70370    0.79222    0.85249    1.000
    N4138    N        0.73801    0.78423    0.78004    1.000
    Si4139   Si       0.61848    0.78954    0.74256    1.000
    N4140    N        0.52354    0.77967    0.87172    1.000
    N4141    N        0.55032    0.79835    0.97781    1.000
    Si4142   Si       0.51042    0.80901    0.96158    1.000
    N4143    N        0.59282    0.80584    0.92752    1.000
    N4144    N        0.49437    0.77240    0.94474    1.000
    N4145    N        0.72078    0.77800    0.92029    1.000
    N4146    N        0.67483    0.80161    0.96472    1.000
    N4147    N        0.65210    0.77723    0.89570    1.000
    Si4148   Si       0.61583    0.80274    0.88866    1.000
    Si4149   Si       0.67608    0.77477    0.93215    1.000
    N4150    N        0.59623    0.84816    0.06422    1.000
    Si4151   Si       0.55366    0.84173    0.07690    1.000
    N4152    N        0.53341    0.88032    0.07819    1.000
    Si4153   Si       0.49515    0.84210    0.02955    1.000
    N4154    N        0.50287    0.88357    0.01632    1.000
    Si4155   Si       0.61656    0.87136    0.09523    1.000
    Si4156   Si       0.66960    0.86732    0.01928    1.000
    N4157    N        0.65961    0.87736    0.09188    1.000
    N4158    N        0.70561    0.86904    0.04276    1.000
    Si4159   Si       0.69805    0.85863    0.08444    1.000
    N4160    N        0.72535    0.87903    0.11177    1.000
    N4161    N        0.57481    0.85899    0.23208    1.000
    N4162    N        0.55825    0.87552    0.15768    1.000
    N4163    N        0.50904    0.85653    0.20227    1.000
    Si4164   Si       0.51800    0.88552    0.17215    1.000
    Si4165   Si       0.57498    0.83679    0.14860    1.000
    N4166    N        0.48898    0.87895    0.13999    1.000
    N4167    N        0.61330    0.84384    0.13173    1.000
    Si4168   Si       0.72327    0.85908    0.15053    1.000
    N4169    N        0.64530    0.83416    0.22611    1.000
    Si4170   Si       0.65710    0.83241    0.13173    1.000
    N4171    N        0.62106    0.88863    0.18570    1.000
    N4172    N        0.67795    0.85956    0.15877    1.000
    Si4173   Si       0.61666    0.86696    0.22475    1.000
    N4174    N        0.51498    0.86246    0.27716    1.000
    Si4175   Si       0.55707    0.87010    0.27129    1.000
    N4176    N        0.54615    0.84112    0.35963    1.000
    N4177    N        0.57086    0.83748    0.29624    1.000
    Si4178   Si       0.58495    0.84920    0.37576    1.000
    N4179    N        0.64800    0.85203    0.29578    1.000
    Si4180   Si       0.66219    0.85191    0.34119    1.000
    N4181    N        0.70424    0.85799    0.32773    1.000
    Si4182   Si       0.72284    0.87997    0.29482    1.000
    N4183    N        0.71758    0.86294    0.25452    1.000
    N4184    N        0.61678    0.83704    0.34823    1.000
    Si4185   Si       0.52457    0.86112    0.45690    1.000
    Si4186   Si       0.50976    0.85175    0.38316    1.000
    N4187    N        0.54294    0.84266    0.49071    1.000
    N4188    N        0.51683    0.83327    0.42382    1.000
    N4189    N        0.60898    0.84838    0.46411    1.000
    N4190    N        0.59182    0.89174    0.38865    1.000
    N4191    N        0.72409    0.88657    0.41672    1.000
    N4192    N        0.65383    0.88765    0.41836    1.000
    Si4193   Si       0.63303    0.88347    0.45847    1.000
    N4194    N        0.67150    0.88133    0.47890    1.000
    N4195    N        0.51513    0.86941    0.57641    1.000
    Si4196   Si       0.53136    0.85812    0.61431    1.000
    Si4197   Si       0.58457    0.85275    0.49969    1.000
    N4198    N        0.57470    0.86505    0.61365    1.000
    N4199    N        0.59966    0.83626    0.53641    1.000
    Si4200   Si       0.69136    0.86422    0.51262    1.000
    Si4201   Si       0.63372    0.84946    0.56214    1.000
    N4202    N        0.66818    0.83533    0.53832    1.000
    Si4203   Si       0.72471    0.88631    0.58018    1.000
    N4204    N        0.72462    0.84060    0.49386    1.000
    N4205    N        0.48995    0.88523    0.70668    1.000
    Si4206   Si       0.52777    0.88226    0.68539    1.000
    N4207    N        0.54880    0.84382    0.68802    1.000
    Si4208   Si       0.60481    0.84006    0.63320    1.000
    Si4209   Si       0.55915    0.83310    0.72881    1.000
    Si4210   Si       0.66881    0.84747    0.66776    1.000
    N4211    N        0.69916    0.84776    0.63909    1.000
    N4212    N        0.68245    0.85561    0.70744    1.000
    N4213    N        0.62914    0.86242    0.66099    1.000
    Si4214   Si       0.58718    0.85661    0.84721    1.000
    N4215    N        0.58639    0.86013    0.75006    1.000
    Si4216   Si       0.61594    0.84922    0.77921    1.000
    N4217    N        0.55004    0.84775    0.86921    1.000
    N4218    N        0.59316    0.83221    0.81185    1.000
    N4219    N        0.52143    0.83339    0.74955    1.000
    N4220    N        0.68813    0.86168    0.84867    1.000
    N4221    N        0.69879    0.84450    0.78050    1.000
    Si4222   Si       0.68337    0.87520    0.80797    1.000
    N4223    N        0.63872    0.88118    0.79855    1.000
    Si4224   Si       0.71952    0.83352    0.85719    1.000
    N4225    N        0.62060    0.84145    0.87179    1.000
    Si4226   Si       0.68193    0.83038    0.74384    1.000
    Si4227   Si       0.54189    0.86672    0.90868    1.000
    N4228    N        0.58127    0.87195    0.92915    1.000
    N4229    N        0.52724    0.84060    0.94022    1.000
    Si4230   Si       0.57429    0.83546    0.95356    1.000
    N4231    N        0.59371    0.85151    0.99162    1.000
    Si4232   Si       0.69119    0.84084    0.95354    1.000
    N4233    N        0.67930    0.87263    0.97718    1.000
    Si4234   Si       0.65806    0.86143    0.88043    1.000
    N4235    N        0.68038    0.84526    0.91253    1.000
    N4236    N        0.73613    0.83668    0.95711    1.000
    Si4237   Si       0.53551    0.90211    0.03755    1.000
    N4238    N        0.57255    0.91489    0.01928    1.000
    Si4239   Si       0.50394    0.90130    0.10377    1.000
    N4240    N        0.60060    0.90769    0.11277    1.000
    N4241    N        0.52136    0.94376    0.05080    1.000
    Si4242   Si       0.60452    0.89458    0.99790    1.000
    N4243    N        0.52892    0.93343    0.12188    1.000
    Si4244   Si       0.61157    0.94752    0.09751    1.000
    N4245    N        0.71399    0.93831    0.09310    1.000
    Si4246   Si       0.67660    0.91808    0.10299    1.000
    Si4247   Si       0.65464    0.93806    0.03353    1.000
    N4248    N        0.64899    0.94060    0.07871    1.000
    N4249    N        0.68335    0.93458    0.00105    1.000
    N4250    N        0.63796    0.89637    0.02750    1.000
    N4251    N        0.50912    0.92531    0.18630    1.000
    Si4252   Si       0.58982    0.90229    0.15669    1.000
    N4253    N        0.57695    0.94070    0.17435    1.000
    Si4254   Si       0.53593    0.94851    0.16265    1.000
    Si4255   Si       0.66198    0.89574    0.17357    1.000
    N4256    N        0.68181    0.90943    0.20906    1.000
    N4257    N        0.66787    0.92840    0.14434    1.000
    Si4258   Si       0.72108    0.89265    0.22196    1.000
    N4259    N        0.56203    0.91416    0.27370    1.000
    Si4260   Si       0.60066    0.92986    0.26604    1.000
    N4261    N        0.50066    0.92987    0.30754    1.000
    Si4262   Si       0.53436    0.94593    0.28331    1.000
    N4263    N        0.62343    0.93347    0.30311    1.000
    N4264    N        0.72641    0.92382    0.35963    1.000
    N4265    N        0.69114    0.91142    0.29601    1.000
    Si4266   Si       0.68701    0.92289    0.33982    1.000
    Si4267   Si       0.71315    0.94390    0.27337    1.000
    Si4268   Si       0.64952    0.89675    0.29342    1.000
    N4269    N        0.62524    0.89626    0.25475    1.000
    N4270    N        0.65579    0.89569    0.34943    1.000
    Si4271   Si       0.55353    0.90620    0.40570    1.000
    Si4272   Si       0.57558    0.91917    0.47336    1.000
    N4273    N        0.51362    0.89448    0.39159    1.000
    N4274    N        0.49896    0.94443    0.43600    1.000
    N4275    N        0.55433    0.89203    0.44766    1.000
    N4276    N        0.56210    0.94709    0.40955    1.000
    N4277    N        0.61780    0.92434    0.45931    1.000
    N4278    N        0.68785    0.94043    0.44789    1.000
    Si4279   Si       0.63278    0.90802    0.38550    1.000
    Si4280   Si       0.68965    0.89669    0.44034    1.000
    N4281    N        0.51361    0.91974    0.52258    1.000
    N4282    N        0.56847    0.91605    0.57210    1.000
    Si4283   Si       0.59974    0.91944    0.54058    1.000
    Si4284   Si       0.52709    0.91181    0.56348    1.000
    N4285    N        0.50522    0.93926    0.58985    1.000
    Si4286   Si       0.59858    0.90088    0.60044    1.000
    N4287    N        0.58637    0.89599    0.50791    1.000
    Si4288   Si       0.67295    0.91614    0.56566    1.000
    N4289    N        0.69529    0.91061    0.60233    1.000
    N4290    N        0.63008    0.89529    0.56752    1.000
    N4291    N        0.70400    0.89342    0.54197    1.000
    Si4292   Si       0.58527    0.90159    0.73201    1.000
    N4293    N        0.55388    0.91263    0.70413    1.000
    Si4294   Si       0.50335    0.92847    0.63588    1.000
    N4295    N        0.61628    0.92371    0.63249    1.000
    N4296    N        0.52093    0.88966    0.64209    1.000
    N4297    N        0.62208    0.91268    0.70966    1.000
    Si4298   Si       0.69349    0.89605    0.70676    1.000
    N4299    N        0.67802    0.90728    0.66853    1.000
    Si4300   Si       0.63462    0.90698    0.66770    1.000
    Si4301   Si       0.70460    0.92731    0.64103    1.000
    N4302    N        0.73573    0.89797    0.70013    1.000
    N4303    N        0.68317    0.91894    0.74047    1.000
    N4304    N        0.59601    0.92963    0.76469    1.000
    N4305    N        0.50880    0.89910    0.81161    1.000
    Si4306   Si       0.54415    0.92163    0.82570    1.000
    N4307    N        0.58070    0.89533    0.82793    1.000
    Si4308   Si       0.49386    0.93654    0.79451    1.000
    N4309    N        0.54370    0.94563    0.86126    1.000
    Si4310   Si       0.61329    0.91752    0.80652    1.000
    N4311    N        0.70861    0.91023    0.80729    1.000
    Si4312   Si       0.72143    0.92037    0.85145    1.000
    Si4313   Si       0.69346    0.94015    0.77925    1.000
    N4314    N        0.65135    0.94694    0.78778    1.000
    Si4315   Si       0.64022    0.93438    0.74332    1.000
    N4316    N        0.52467    0.90564    0.91205    1.000
    N4317    N        0.59122    0.94052    0.91257    1.000
    Si4318   Si       0.61092    0.90407    0.92465    1.000
    Si4319   Si       0.54897    0.94300    0.90607    1.000
    N4320    N        0.62756    0.91027    0.96321    1.000
    Si4321   Si       0.73012    0.93694    0.92024    1.000
    Si4322   Si       0.67020    0.91273    0.96627    1.000
    Si4323   Si       0.66338    0.93562    0.89423    1.000
    N4324    N        0.68955    0.93178    0.93020    1.000
    N4325    N        0.73691    0.90452    0.89149    1.000
    N4326    N        0.64237    0.89907    0.89386    1.000
    N4327    N        0.56236    0.98391    0.00531    1.000
    Si4328   Si       0.53727    0.96044    0.08769    1.000
    Si4329   Si       0.58242    0.95597    0.03006    1.000
    N4330    N        0.51745    0.99856    0.09591    1.000
    N4331    N        0.57769    0.95874    0.07333    1.000
    Si4332   Si       0.49448    0.97123    0.02987    1.000
    N4333    N        0.62384    0.96969    0.02579    1.000
    N4334    N        0.68901    0.98088    0.04353    1.000
    Si4335   Si       0.70542    0.97931    0.08508    1.000
    Si4336   Si       0.70987    0.96614    0.00749    1.000
    Si4337   Si       0.65029    0.00088    0.03810    1.000
    N4338    N        0.68092    0.99370    0.12060    1.000
    Si4339   Si       0.49600    0.00074    0.13178    1.000
    N4340    N        0.60294    0.96552    0.24094    1.000
    Si4341   Si       0.60100    0.96878    0.19590    1.000
    N4342    N        0.52499    0.98961    0.16404    1.000
    Si4343   Si       0.73859    0.99763    0.20610    1.000
    N4344    N        0.64500    0.96790    0.18958    1.000
    N4345    N        0.70957    0.97410    0.18985    1.000
    Si4346   Si       0.67825    0.95268    0.21308    1.000
    Si4347   Si       0.65897    0.97075    0.14973    1.000
    N4348    N        0.61880    0.97706    0.12917    1.000
    N4349    N        0.55376    0.98067    0.29886    1.000
    N4350    N        0.59804    0.97795    0.35385    1.000
    Si4351   Si       0.56462    0.99871    0.33665    1.000
    N4352    N        0.51012    0.96336    0.25123    1.000
    Si4353   Si       0.49267    0.99775    0.27621    1.000
    N4354    N        0.53521    0.00566    0.36683    1.000
    Si4355   Si       0.62931    0.96927    0.32633    1.000
    N4356    N        0.67908    0.96493    0.25500    1.000
    N4357    N        0.66990    0.96233    0.34303    1.000
    N4358    N        0.63000    0.00551    0.30194    1.000
    Si4359   Si       0.62373    0.00247    0.25835    1.000
    Si4360   Si       0.69322    0.00622    0.26151    1.000
    N4361    N        0.73578    0.00075    0.24863    1.000
    Si4362   Si       0.53628    0.96571    0.44091    1.000
    Si4363   Si       0.59792    0.97168    0.39659    1.000
    N4364    N        0.55414    0.95619    0.47881    1.000
    N4365    N        0.49243    0.98845    0.48866    1.000
    Si4366   Si       0.64730    0.95336    0.44545    1.000
    N4367    N        0.64530    0.99519    0.45534    1.000
    Si4368   Si       0.66518    0.98089    0.38132    1.000
    Si4369   Si       0.72050    0.96990    0.43825    1.000
    N4370    N        0.70275    0.98802    0.40192    1.000
    N4371    N        0.63869    0.95320    0.40127    1.000
    N4372    N        0.73342    0.00054    0.46587    1.000
    N4373    N        0.53767    0.97960    0.54378    1.000
    Si4374   Si       0.57540    0.98606    0.56530    1.000
    Si4375   Si       0.50453    0.98046    0.57242    1.000
    N4376    N        0.57254    0.97781    0.60757    1.000
    Si4377   Si       0.52219    0.96130    0.50811    1.000
    N4378    N        0.60966    0.96185    0.55000    1.000
    Si4379   Si       0.64352    0.98423    0.56609    1.000
    Si4380   Si       0.71952    0.97848    0.55565    1.000
    N4381    N        0.64024    0.98183    0.60976    1.000
    N4382    N        0.67791    0.95929    0.55798    1.000
    N4383    N        0.55373    0.97915    0.72999    1.000
    N4384    N        0.59310    0.97190    0.67303    1.000
    Si4385   Si       0.60427    0.96795    0.63246    1.000
    Si4386   Si       0.55665    0.95469    0.69164    1.000
    N4387    N        0.52065    0.95464    0.66478    1.000
    N4388    N        0.64862    0.97527    0.72560    1.000
    N4389    N        0.69858    0.96873    0.64720    1.000
    Si4390   Si       0.61965    0.99554    0.69870    1.000
    Si4391   Si       0.68211    0.99858    0.74100    1.000
    Si4392   Si       0.67131    0.99956    0.63576    1.000
    Si4393   Si       0.57078    0.96624    0.76836    1.000
    Si4394   Si       0.56908    0.97798    0.84711    1.000
    Si4395   Si       0.51155    0.99523    0.80352    1.000
    N4396    N        0.59897    0.95715    0.82493    1.000
    N4397    N        0.59928    0.99983    0.77405    1.000
    N4398    N        0.49757    0.99375    0.76013    1.000
    N4399    N        0.53695    0.95273    0.79393    1.000
    Si4400   Si       0.67581    0.98871    0.86088    1.000
    Si4401   Si       0.62673    0.98143    0.80272    1.000
    N4402    N        0.70725    0.98080    0.77069    1.000
    N4403    N        0.73015    0.99680    0.83147    1.000
    N4404    N        0.65301    0.00614    0.82618    1.000
    N4405    N        0.68905    0.94691    0.86200    1.000
    Si4406   Si       0.60844    0.98059    0.91005    1.000
    Si4407   Si       0.56851    0.99843    0.96416    1.000
    Si4408   Si       0.50162    0.97451    0.95067    1.000
    N4409    N        0.54281    0.97571    0.93790    1.000
    N4410    N        0.58621    0.00003    0.88043    1.000
    N4411    N        0.60806    0.00545    0.94663    1.000
    N4412    N        0.64790    0.97636    0.89391    1.000
    N4413    N        0.71748    0.99483    0.97531    1.000
    Si4414   Si       0.80177    0.04780    0.05172    1.000
    N4415    N        0.84469    0.04060    0.06175    1.000
    Si4416   Si       0.86239    0.05716    0.09608    1.000
    Si4417   Si       0.74188    0.04296    0.10148    1.000
    Si4418   Si       0.86691    0.04795    0.02415    1.000
    N4419    N        0.95986    0.03430    0.08508    1.000
    N4420    N        0.89657    0.03342    0.10534    1.000
    N4421    N        0.90734    0.03634    0.03003    1.000
    Si4422   Si       0.92165    0.02290    0.07014    1.000
    Si4423   Si       0.77676    0.03650    0.17695    1.000
    N4424    N        0.76606    0.04579    0.13692    1.000
    N4425    N        0.80777    0.06466    0.18894    1.000
    N4426    N        0.83636    0.06988    0.12929    1.000
    Si4427   Si       0.84729    0.06595    0.17040    1.000
    Si4428   Si       0.89766    0.01550    0.14435    1.000
    N4429    N        0.97654    0.01236    0.21602    1.000
    Si4430   Si       0.95577    0.05280    0.12454    1.000
    N4431    N        0.87359    0.03083    0.17655    1.000
    N4432    N        0.94057    0.02485    0.15417    1.000
    Si4433   Si       0.94268    0.02977    0.19571    1.000
    N4434    N        0.91566    0.00498    0.21955    1.000
    Si4435   Si       0.87110    0.00564    0.21173    1.000
    N4436    N        0.84043    0.04595    0.31054    1.000
    Si4437   Si       0.84354    0.04934    0.26726    1.000
    N4438    N        0.76450    0.03007    0.30352    1.000
    N4439    N        0.85020    0.00977    0.25145    1.000
    Si4440   Si       0.86252    0.01512    0.32908    1.000
    Si4441   Si       0.93750    0.04177    0.30334    1.000
    N4442    N        0.90232    0.03227    0.32682    1.000
    N4443    N        0.96091    0.05313    0.33952    1.000
    Si4444   Si       0.91844    0.06064    0.35993    1.000
    N4445    N        0.95627    0.01031    0.28433    1.000
    Si4446   Si       0.86810    0.04494    0.46544    1.000
    N4447    N        0.85476    0.00746    0.37167    1.000
    N4448    N        0.81066    0.06080    0.37700    1.000
    Si4449   Si       0.84574    0.04496    0.39294    1.000
    N4450    N        0.75763    0.01858    0.38867    1.000
    Si4451   Si       0.77039    0.06259    0.39364    1.000
    N4452    N        0.84279    0.06131    0.43395    1.000
    N4453    N        0.77143    0.06248    0.43885    1.000
    N4454    N        0.83640    0.02629    0.49088    1.000
    Si4455   Si       0.93563    0.04315    0.43927    1.000
    N4456    N        0.93635    0.04447    0.39615    1.000
    N4457    N        0.90161    0.02179    0.45393    1.000
    N4458    N        0.97048    0.02543    0.45434    1.000
    Si4459   Si       0.96963    0.02660    0.37575    1.000
    Si4460   Si       0.80912    0.05017    0.51347    1.000
    N4461    N        0.77066    0.04377    0.60172    1.000
    N4462    N        0.77265    0.02771    0.51339    1.000
    N4463    N        0.81725    0.06293    0.55484    1.000
    N4464    N        0.88489    0.04583    0.56798    1.000
    N4465    N        0.94116    0.04773    0.61073    1.000
    Si4466   Si       0.98070    0.03771    0.52877    1.000
    N4467    N        0.94265    0.05638    0.53058    1.000
    Si4468   Si       0.92463    0.06287    0.57199    1.000
    Si4469   Si       0.95796    0.00982    0.59061    1.000
    N4470    N        0.83195    0.02265    0.64369    1.000
    Si4471   Si       0.79282    0.03989    0.64142    1.000
    N4472    N        0.78355    0.02797    0.72086    1.000
    N4473    N        0.75901    0.01693    0.65739    1.000
    N4474    N        0.86221    0.02486    0.70933    1.000
    Si4475   Si       0.86161    0.04390    0.66958    1.000
    N4476    N        0.89365    0.01913    0.65202    1.000
    Si4477   Si       0.93618    0.02121    0.64839    1.000
    N4478    N        0.96555    0.04215    0.67541    1.000
    N4479    N        0.83862    0.03046    0.77305    1.000
    Si4480   Si       0.84805    0.04246    0.81385    1.000
    N4481    N        0.76809    0.03332    0.78778    1.000
    Si4482   Si       0.80036    0.04361    0.75727    1.000
    N4483    N        0.85034    0.01507    0.84938    1.000
    N4484    N        0.75275    0.06013    0.85332    1.000
    Si4485   Si       0.77392    0.06727    0.81568    1.000
    Si4486   Si       0.88990    0.01226    0.86494    1.000
    Si4487   Si       0.91970    0.04258    0.80166    1.000
    N4488    N        0.91137    0.01997    0.76473    1.000
    N4489    N        0.92207    0.01297    0.83349    1.000
    Si4490   Si       0.87565    0.03636    0.74769    1.000
    N4491    N        0.73778    0.05348    0.92019    1.000
    Si4492   Si       0.82237    0.02976    0.88333    1.000
    N4493    N        0.77893    0.01664    0.96501    1.000
    Si4494   Si       0.75861    0.05847    0.96035    1.000
    Si4495   Si       0.85919    0.03818    0.95296    1.000
    N4496    N        0.84187    0.01424    0.92023    1.000
    N4497    N        0.84321    0.02882    0.99145    1.000
    N4498    N        0.80561    0.06692    0.89721    1.000
    Si4499   Si       0.92659    0.02329    0.99415    1.000
    N4500    N        0.89350    0.05058    0.88563    1.000
    N4501    N        0.90112    0.02451    0.95410    1.000
    N4502    N        0.96601    0.02063    0.97845    1.000
    N4503    N        0.95863    0.03830    0.90533    1.000
    Si4504   Si       0.91973    0.04929    0.92204    1.000
    Si4505   Si       0.99029    0.05692    0.98327    1.000
    Si4506   Si       0.77086    0.10366    0.05239    1.000
    N4507    N        0.79303    0.07939    0.02425    1.000
    N4508    N        0.77974    0.07007    0.08232    1.000
    N4509    N        0.86878    0.09157    0.02496    1.000
    N4510    N        0.87877    0.09782    0.09103    1.000
    Si4511   Si       0.97085    0.11055    0.04090    1.000
    Si4512   Si       0.89401    0.11560    0.05602    1.000
    N4513    N        0.93629    0.11823    0.06735    1.000
    N4514    N        0.97144    0.07385    0.01796    1.000
    N4515    N        0.86715    0.10411    0.17250    1.000
    Si4516   Si       0.79427    0.07857    0.12347    1.000
    N4517    N        0.75314    0.10332    0.20961    1.000
    Si4518   Si       0.79493    0.08819    0.22284    1.000
    N4519    N        0.77903    0.11606    0.13639    1.000
    N4520    N        0.82146    0.12205    0.22311    1.000
    Si4521   Si       0.86404    0.12685    0.20966    1.000
    N4522    N        0.93569    0.07218    0.20142    1.000
    Si4523   Si       0.91217    0.08371    0.23737    1.000
    N4524    N        0.94786    0.09327    0.13449    1.000
    Si4525   Si       0.95919    0.10200    0.17622    1.000
    N4526    N        0.97868    0.11472    0.24112    1.000
    Si4527   Si       0.87000    0.11642    0.13059    1.000
    N4528    N        0.87218    0.07096    0.24497    1.000
    N4529    N        0.79433    0.09634    0.32191    1.000
    Si4530   Si       0.82868    0.07762    0.33985    1.000
    N4531    N        0.84683    0.12073    0.34508    1.000
    Si4532   Si       0.77814    0.06834    0.29379    1.000
    N4533    N        0.80368    0.06607    0.25753    1.000
    N4534    N        0.92024    0.10413    0.35092    1.000
    Si4535   Si       0.96124    0.10558    0.27971    1.000
    N4536    N        0.93386    0.07382    0.27487    1.000
    Si4537   Si       0.88042    0.11232    0.36943    1.000
    N4538    N        0.74628    0.12310    0.48645    1.000
    N4539    N        0.81519    0.12357    0.42430    1.000
    N4540    N        0.75778    0.10408    0.38983    1.000
    Si4541   Si       0.80889    0.08556    0.44732    1.000
    N4542    N        0.80934    0.09081    0.49319    1.000
    Si4543   Si       0.97220    0.10885    0.44526    1.000
    N4544    N        0.88274    0.07641    0.49175    1.000
    N4545    N        0.87618    0.06927    0.37437    1.000
    N4546    N        0.94104    0.08212    0.45832    1.000
    N4547    N        0.75520    0.08591    0.54211    1.000
    N4548    N        0.78132    0.11232    0.60148    1.000
    Si4549   Si       0.77549    0.11417    0.51644    1.000
    Si4550   Si       0.78064    0.07579    0.57479    1.000
    N4551    N        0.84498    0.08928    0.61113    1.000
    Si4552   Si       0.85433    0.07745    0.57170    1.000
    Si4553   Si       0.85198    0.10429    0.50181    1.000
    N4554    N        0.85961    0.11057    0.54433    1.000
    N4555    N        0.91760    0.10395    0.58019    1.000
    Si4556   Si       0.92584    0.07960    0.49997    1.000
    N4557    N        0.92736    0.12062    0.51571    1.000
    Si4558   Si       0.79500    0.11444    0.64493    1.000
    N4559    N        0.79496    0.07537    0.66469    1.000
    Si4560   Si       0.78209    0.06900    0.70719    1.000
    N4561    N        0.74122    0.08266    0.70352    1.000
    N4562    N        0.80326    0.08473    0.74380    1.000
    Si4563   Si       0.86515    0.11445    0.64030    1.000
    N4564    N        0.94725    0.10977    0.64887    1.000
    Si4565   Si       0.96703    0.07081    0.64342    1.000
    Si4566   Si       0.88107    0.10421    0.71092    1.000
    N4567    N        0.87459    0.08625    0.67275    1.000
    N4568    N        0.75481    0.10267    0.80009    1.000
    Si4569   Si       0.83391    0.11026    0.83214    1.000
    N4570    N        0.84677    0.11902    0.79169    1.000
    Si4571   Si       0.82100    0.12195    0.75610    1.000
    N4572    N        0.81541    0.07171    0.82420    1.000
    N4573    N        0.86640    0.11683    0.86116    1.000
    N4574    N        0.93648    0.09480    0.85633    1.000
    Si4575   Si       0.88635    0.10104    0.78487    1.000
    Si4576   Si       0.94686    0.11015    0.81859    1.000
    Si4577   Si       0.89278    0.08297    0.85666    1.000
    N4578    N        0.94829    0.07384    0.79259    1.000
    N4579    N        0.88462    0.06732    0.81584    1.000
    N4580    N        0.88675    0.07916    0.74681    1.000
    N4581    N        0.75084    0.11946    0.89287    1.000
    N4582    N        0.85360    0.08242    0.95141    1.000
    Si4583   Si       0.76316    0.07651    0.89273    1.000
    N4584    N        0.78316    0.09485    0.95225    1.000
    Si4585   Si       0.85541    0.11204    0.98714    1.000
    Si4586   Si       0.82037    0.09586    0.92912    1.000
    N4587    N        0.92579    0.09017    0.93493    1.000
    Si4588   Si       0.96742    0.07284    0.87907    1.000
    Si4589   Si       0.91327    0.12928    0.94430    1.000
    Si4590   Si       0.76692    0.16650    0.04195    1.000
    N4591    N        0.78456    0.13915    0.07310    1.000
    Si4592   Si       0.79599    0.15185    0.11364    1.000
    N4593    N        0.75806    0.13182    0.01463    1.000
    N4594    N        0.84079    0.14756    0.11668    1.000
    N4595    N        0.88708    0.15739    0.04496    1.000
    N4596    N        0.97350    0.13961    0.00962    1.000
    N4597    N        0.97739    0.15282    0.11169    1.000
    Si4598   Si       0.89433    0.17168    0.00496    1.000
    Si4599   Si       0.87374    0.17754    0.11206    1.000
    Si4600   Si       0.96945    0.18277    0.01168    1.000
    N4601    N        0.90340    0.14709    0.12295    1.000
    Si4602   Si       0.94011    0.12803    0.10800    1.000
    Si4603   Si       0.81448    0.16428    0.21351    1.000
    N4604    N        0.78668    0.16726    0.18201    1.000
    N4605    N        0.85460    0.16771    0.19940    1.000
    Si4606   Si       0.76341    0.12992    0.17384    1.000
    N4607    N        0.90190    0.12729    0.23264    1.000
    N4608    N        0.94953    0.18151    0.23487    1.000
    Si4609   Si       0.98503    0.15579    0.23936    1.000
    N4610    N        0.95897    0.14398    0.17798    1.000
    N4611    N        0.81288    0.15805    0.29401    1.000
    N4612    N        0.79156    0.16277    0.36181    1.000
    Si4613   Si       0.80844    0.13732    0.32980    1.000
    Si4614   Si       0.78057    0.17846    0.27561    1.000
    N4615    N        0.74718    0.14920    0.27196    1.000
    Si4616   Si       0.94099    0.13797    0.33419    1.000
    Si4617   Si       0.91696    0.16253    0.25853    1.000
    N4618    N        0.92075    0.16742    0.36147    1.000
    N4619    N        0.93536    0.13887    0.29086    1.000
    N4620    N        0.98466    0.14579    0.34465    1.000
    N4621    N        0.75847    0.16584    0.42369    1.000
    Si4622   Si       0.85248    0.14325    0.43523    1.000
    Si4623   Si       0.75466    0.16081    0.46749    1.000
    Si4624   Si       0.78380    0.13817    0.39679    1.000
    N4625    N        0.85115    0.14152    0.47806    1.000
    N4626    N        0.79116    0.17843    0.48478    1.000
    Si4627   Si       0.83486    0.18230    0.47849    1.000
    N4628    N        0.97807    0.13915    0.47535    1.000
    N4629    N        0.88609    0.13290    0.40666    1.000
    Si4630   Si       0.92506    0.15088    0.40280    1.000
    N4631    N        0.96101    0.12698    0.40763    1.000
    N4632    N        0.77750    0.14956    0.54183    1.000
    Si4633   Si       0.76185    0.14773    0.58163    1.000
    N4634    N        0.95777    0.15566    0.59260    1.000
    N4635    N        0.89355    0.17106    0.56112    1.000
    Si4636   Si       0.95028    0.15472    0.50540    1.000
    Si4637   Si       0.93278    0.12911    0.61334    1.000
    Si4638   Si       0.89814    0.12816    0.55153    1.000
    N4639    N        0.98405    0.16758    0.52874    1.000
    Si4640   Si       0.98503    0.17967    0.57041    1.000
    Si4641   Si       0.88412    0.18302    0.60208    1.000
    N4642    N        0.76680    0.13881    0.66798    1.000
    N4643    N        0.83033    0.13761    0.64911    1.000
    N4644    N        0.84987    0.13258    0.72284    1.000
    Si4645   Si       0.76338    0.18271    0.67295    1.000
    Si4646   Si       0.83072    0.18190    0.65349    1.000
    N4647    N        0.95870    0.17849    0.65892    1.000
    N4648    N        0.98204    0.14134    0.70522    1.000
    Si4649   Si       0.87861    0.16625    0.71559    1.000
    N4650    N        0.90912    0.13851    0.70106    1.000
    Si4651   Si       0.94634    0.14040    0.68001    1.000
    N4652    N        0.89187    0.14580    0.62401    1.000
    Si4653   Si       0.77603    0.14069    0.80805    1.000
    N4654    N        0.79198    0.15173    0.76900    1.000
    N4655    N        0.75010    0.17325    0.81436    1.000
    N4656    N        0.80139    0.13561    0.84420    1.000
    Si4657   Si       0.76573    0.18186    0.75539    1.000
    Si4658   Si       0.91128    0.17454    0.78787    1.000
    N4659    N        0.91551    0.13279    0.79797    1.000
    N4660    N        0.98318    0.13281    0.83007    1.000
    Si4661   Si       0.98780    0.13994    0.87183    1.000
    Si4662   Si       0.78177    0.13197    0.97724    1.000
    Si4663   Si       0.78713    0.14319    0.88344    1.000
    N4664    N        0.75938    0.16066    0.95891    1.000
    N4665    N        0.82292    0.13940    0.98488    1.000
    N4666    N        0.82215    0.13480    0.90857    1.000
    Si4667   Si       0.85992    0.14894    0.89190    1.000
    N4668    N        0.89701    0.15485    0.91278    1.000
    N4669    N        0.95925    0.16957    0.87839    1.000
    Si4670   Si       0.93646    0.17726    0.91374    1.000
    N4671    N        0.89178    0.13402    0.98158    1.000
    Si4672   Si       0.98272    0.13115    0.96841    1.000
    N4673    N        0.95187    0.15303    0.94625    1.000
    N4674    N        0.79360    0.19461    0.02282    1.000
    Si4675   Si       0.74733    0.21004    0.09222    1.000
    Si4676   Si       0.79195    0.23686    0.03494    1.000
    Si4677   Si       0.86174    0.23896    0.00424    1.000
    N4678    N        0.77172    0.24227    0.07372    1.000
    N4679    N        0.86067    0.19713    0.99401    1.000
    Si4680   Si       0.98406    0.23253    0.06516    1.000
    N4681    N        0.88358    0.21427    0.08579    1.000
    N4682    N        0.98040    0.19174    0.05170    1.000
    N4683    N        0.93109    0.19462    0.99796    1.000
    N4684    N        0.77034    0.18880    0.12162    1.000
    N4685    N        0.85244    0.23995    0.21288    1.000
    N4686    N        0.79382    0.23498    0.18231    1.000
    Si4687   Si       0.76936    0.20169    0.16402    1.000
    Si4688   Si       0.80983    0.23215    0.22181    1.000
    N4689    N        0.79953    0.19500    0.23951    1.000
    Si4690   Si       0.94487    0.18425    0.19224    1.000
    N4691    N        0.86158    0.20644    0.14508    1.000
    Si4692   Si       0.87056    0.20620    0.18644    1.000
    N4693    N        0.97637    0.20105    0.16638    1.000
    N4694    N        0.91383    0.21324    0.18618    1.000
    Si4695   Si       0.77859    0.20389    0.35278    1.000
    N4696    N        0.76513    0.20364    0.31057    1.000
    N4697    N        0.80331    0.23838    0.35909    1.000
    Si4698   Si       0.84774    0.24269    0.35241    1.000
    N4699    N        0.92286    0.22998    0.32864    1.000
    Si4700   Si       0.89897    0.23207    0.29331    1.000
    N4701    N        0.89459    0.19557    0.27203    1.000
    Si4702   Si       0.91587    0.20898    0.36644    1.000
    N4703    N        0.74223    0.21015    0.37691    1.000
    N4704    N        0.84828    0.18837    0.43663    1.000
    N4705    N        0.73983    0.23078    0.44206    1.000
    Si4706   Si       0.93435    0.20980    0.45823    1.000
    Si4707   Si       0.88114    0.21280    0.42199    1.000
    N4708    N        0.97521    0.22183    0.45172    1.000
    Si4709   Si       0.98237    0.23629    0.40986    1.000
    N4710    N        0.90101    0.23813    0.45421    1.000
    N4711    N        0.87637    0.22174    0.37875    1.000
    N4712    N        0.94853    0.23172    0.38377    1.000
    N4713    N        0.91919    0.18744    0.42498    1.000
    N4714    N        0.80811    0.21477    0.54829    1.000
    Si4715   Si       0.80466    0.21322    0.59098    1.000
    N4716    N        0.84093    0.19354    0.61222    1.000
    N4717    N        0.85515    0.20880    0.50568    1.000
    N4718    N        0.74459    0.21717    0.51110    1.000
    Si4719   Si       0.82939    0.24095    0.52010    1.000
    Si4720   Si       0.77799    0.19210    0.52541    1.000
    N4721    N        0.76674    0.19123    0.59426    1.000
    Si4722   Si       0.93138    0.23100    0.57982    1.000
    Si4723   Si       0.89396    0.20356    0.52678    1.000
    N4724    N        0.97117    0.22125    0.56952    1.000
    N4725    N        0.90722    0.21995    0.61513    1.000
    N4726    N        0.90340    0.23968    0.54707    1.000
    N4727    N        0.92291    0.18873    0.49723    1.000
    Si4728   Si       0.77145    0.23605    0.72701    1.000
    N4729    N        0.79605    0.20739    0.65642    1.000
    N4730    N        0.76417    0.19685    0.71338    1.000
    N4731    N        0.85583    0.19121    0.68754    1.000
    N4732    N        0.91266    0.22331    0.68327    1.000
    Si4733   Si       0.87231    0.23148    0.69113    1.000
    Si4734   Si       0.93718    0.21400    0.65075    1.000
    N4735    N        0.79706    0.21592    0.83865    1.000
    N4736    N        0.77830    0.22162    0.76938    1.000
    Si4737   Si       0.75311    0.20763    0.83884    1.000
    Si4738   Si       0.80202    0.23945    0.80207    1.000
    Si4739   Si       0.87485    0.22092    0.76973    1.000
    Si4740   Si       0.88121    0.21069    0.84877    1.000
    N4741    N        0.94365    0.20299    0.80111    1.000
    N4742    N        0.87794    0.19711    0.80769    1.000
    Si4743   Si       0.95614    0.19670    0.84376    1.000
    N4744    N        0.92218    0.21833    0.86483    1.000
    Si4745   Si       0.94757    0.24433    0.78710    1.000
    N4746    N        0.89230    0.18801    0.75004    1.000
    Si4747   Si       0.81915    0.18393    0.98754    1.000
    N4748    N        0.85371    0.18822    0.87298    1.000
    Si4749   Si       0.81676    0.21030    0.87792    1.000
    Si4750   Si       0.76664    0.19536    0.93440    1.000
    N4751    N        0.80338    0.20899    0.95503    1.000
    N4752    N        0.78393    0.18580    0.89306    1.000
    Si4753   Si       0.95105    0.22464    0.97070    1.000
    N4754    N        0.94000    0.21790    0.93026    1.000
    Si4755   Si       0.93400    0.24520    0.89681    1.000
    Si4756   Si       0.79137    0.27188    0.09826    1.000
    Si4757   Si       0.84776    0.28528    0.05503    1.000
    N4758    N        0.77585    0.27033    0.01132    1.000
    N4759    N        0.83463    0.24688    0.03688    1.000
    N4760    N        0.81210    0.29691    0.07218    1.000
    N4761    N        0.90006    0.25174    0.01934    1.000
    N4762    N        0.88179    0.27956    0.07990    1.000
    N4763    N        0.94619    0.25452    0.07114    1.000
    Si4764   Si       0.92518    0.28294    0.00445    1.000
    Si4765   Si       0.95317    0.29814    0.07148    1.000
    Si4766   Si       0.86521    0.24130    0.11610    1.000
    Si4767   Si       0.90483    0.24469    0.06364    1.000
    N4768    N        0.83275    0.30005    0.17992    1.000
    N4769    N        0.82510    0.25485    0.12123    1.000
    N4770    N        0.77266    0.28572    0.13445    1.000
    Si4771   Si       0.80564    0.27172    0.15846    1.000
    Si4772   Si       0.85968    0.28256    0.20934    1.000
    N4773    N        0.74694    0.30059    0.22382    1.000
    N4774    N        0.90288    0.28257    0.20040    1.000
    N4775    N        0.95995    0.26480    0.16304    1.000
    Si4776   Si       0.98004    0.29865    0.17933    1.000
    Si4777   Si       0.91951    0.25400    0.17142    1.000
    N4778    N        0.89399    0.26748    0.13832    1.000
    N4779    N        0.98619    0.28767    0.22318    1.000
    Si4780   Si       0.83488    0.27269    0.28037    1.000
    Si4781   Si       0.75804    0.27536    0.25636    1.000
    N4782    N        0.85012    0.28357    0.36208    1.000
    N4783    N        0.80107    0.26186    0.25266    1.000
    N4784    N        0.85935    0.29861    0.25104    1.000
    N4785    N        0.85792    0.24651    0.30713    1.000
    N4786    N        0.92065    0.26313    0.26851    1.000
    Si4787   Si       0.95467    0.25652    0.34851    1.000
    Si4788   Si       0.95614    0.29106    0.25578    1.000
    N4789    N        0.94590    0.29872    0.35926    1.000
    N4790    N        0.97160    0.30129    0.29558    1.000
    Si4791   Si       0.89881    0.30194    0.27023    1.000
    N4792    N        0.74687    0.28519    0.46993    1.000
    Si4793   Si       0.82018    0.27967    0.46129    1.000
    Si4794   Si       0.79270    0.27385    0.38455    1.000
    N4795    N        0.74809    0.27479    0.39288    1.000
    N4796    N        0.82072    0.27235    0.41852    1.000
    Si4797   Si       0.85749    0.29570    0.40271    1.000
    N4798    N        0.80315    0.24978    0.48668    1.000
    Si4799   Si       0.75921    0.24255    0.48053    1.000
    N4800    N        0.86179    0.28936    0.47384    1.000
    Si4801   Si       0.89937    0.28138    0.45523    1.000
    Si4802   Si       0.94188    0.30079    0.40165    1.000
    N4803    N        0.90019    0.29195    0.41275    1.000
    N4804    N        0.93657    0.29842    0.47013    1.000
    N4805    N        0.98030    0.27926    0.41682    1.000
    N4806    N        0.83690    0.28280    0.53681    1.000
    N4807    N        0.80385    0.25733    0.59687    1.000
    Si4808   Si       0.82897    0.28731    0.57975    1.000
    Si4809   Si       0.76878    0.27500    0.61683    1.000
    N4810    N        0.87074    0.28601    0.59515    1.000
    N4811    N        0.93992    0.27443    0.58781    1.000
    Si4812   Si       0.90173    0.28034    0.56270    1.000
    N4813    N        0.97329    0.29531    0.53169    1.000
    N4814    N        0.78208    0.27849    0.65708    1.000
    Si4815   Si       0.74818    0.29368    0.68372    1.000
    N4816    N        0.85391    0.25217    0.65672    1.000
    N4817    N        0.80744    0.24987    0.71137    1.000
    Si4818   Si       0.83098    0.26615    0.74233    1.000
    Si4819   Si       0.81186    0.24843    0.66782    1.000
    N4820    N        0.74421    0.26760    0.71894    1.000
    Si4821   Si       0.96705    0.28809    0.71734    1.000
    Si4822   Si       0.94961    0.28562    0.62739    1.000
    N4823    N        0.90914    0.29439    0.64263    1.000
    Si4824   Si       0.90531    0.27644    0.74143    1.000
    N4825    N        0.87097    0.25280    0.72768    1.000
    Si4826   Si       0.88585    0.25911    0.62736    1.000
    N4827    N        0.92493    0.28986    0.70640    1.000
    N4828    N        0.96191    0.24803    0.64543    1.000
    N4829    N        0.79618    0.27968    0.82102    1.000
    Si4830   Si       0.75928    0.28143    0.84391    1.000
    N4831    N        0.74017    0.24681    0.82152    1.000
    N4832    N        0.83961    0.24715    0.78163    1.000
    N4833    N        0.86812    0.25112    0.84550    1.000
    Si4834   Si       0.87033    0.26883    0.80670    1.000
    N4835    N        0.96134    0.26975    0.82107    1.000
    N4836    N        0.90449    0.25438    0.78018    1.000
    Si4837   Si       0.99154    0.25820    0.84968    1.000
    N4838    N        0.96631    0.25600    0.74896    1.000
    N4839    N        0.78563    0.27709    0.93948    1.000
    N4840    N        0.84646    0.26164    0.97183    1.000
    N4841    N        0.74248    0.26816    0.88295    1.000
    Si4842   Si       0.81817    0.24740    0.94244    1.000
    Si4843   Si       0.78903    0.29568    0.97803    1.000
    Si4844   Si       0.76477    0.29754    0.90733    1.000
    Si4845   Si       0.86529    0.26958    0.88670    1.000
    N4846    N        0.83497    0.24288    0.90235    1.000
    N4847    N        0.90177    0.30338    0.97367    1.000
    N4848    N        0.90280    0.27525    0.90699    1.000
    N4849    N        0.96089    0.26484    0.98581    1.000
    N4850    N        0.97631    0.26317    0.88880    1.000
    Si4851   Si       0.79940    0.33741    0.07052    1.000
    N4852    N        0.76116    0.33322    0.05297    1.000
    N4853    N        0.86487    0.31352    0.02577    1.000
    Si4854   Si       0.74787    0.30122    0.02536    1.000
    N4855    N        0.78430    0.35523    0.10722    1.000
    Si4856   Si       0.74360    0.35679    0.08491    1.000
    N4857    N        0.93274    0.31401    0.03662    1.000
    N4858    N        0.93890    0.31654    0.10881    1.000
    Si4859   Si       0.89674    0.34077    0.03800    1.000
    N4860    N        0.89731    0.36432    0.07430    1.000
    Si4861   Si       0.89514    0.30388    0.11343    1.000
    Si4862   Si       0.74023    0.31445    0.14513    1.000
    Si4863   Si       0.76403    0.34104    0.21786    1.000
    N4864    N        0.76023    0.34457    0.17353    1.000
    Si4865   Si       0.85123    0.33556    0.16672    1.000
    N4866    N        0.86322    0.33135    0.12212    1.000
    Si4867   Si       0.95108    0.34557    0.13778    1.000
    N4868    N        0.88325    0.34981    0.18855    1.000
    Si4869   Si       0.91581    0.32310    0.20339    1.000
    N4870    N        0.94856    0.32757    0.17628    1.000
    N4871    N        0.92655    0.32321    0.24544    1.000
    Si4872   Si       0.78430    0.33205    0.29113    1.000
    Si4873   Si       0.82956    0.31728    0.34438    1.000
    Si4874   Si       0.76676    0.34785    0.36027    1.000
    N4875    N        0.82164    0.31073    0.30028    1.000
    Si4876   Si       0.83588    0.33447    0.26194    1.000
    N4877    N        0.79461    0.31579    0.36727    1.000
    N4878    N        0.85732    0.34946    0.35012    1.000
    N4879    N        0.75281    0.30200    0.28976    1.000
    N4880    N        0.79477    0.34341    0.24942    1.000
    N4881    N        0.90415    0.32110    0.30857    1.000
    Si4882   Si       0.94595    0.32247    0.32315    1.000
    Si4883   Si       0.88083    0.35736    0.31682    1.000
    Si4884   Si       0.76200    0.32719    0.46829    1.000
    N4885    N        0.80427    0.31972    0.46244    1.000
    N4886    N        0.85091    0.33610    0.41852    1.000
    Si4887   Si       0.83428    0.35043    0.45680    1.000
    N4888    N        0.85612    0.35256    0.49506    1.000
    Si4889   Si       0.96624    0.33014    0.45580    1.000
    N4890    N        0.94845    0.34061    0.41762    1.000
    N4891    N        0.82299    0.32571    0.60224    1.000
    Si4892   Si       0.78435    0.34502    0.59873    1.000
    N4893    N        0.75428    0.31165    0.60189    1.000
    Si4894   Si       0.86082    0.31176    0.51067    1.000
    Si4895   Si       0.93712    0.31197    0.51089    1.000
    N4896    N        0.90050    0.30841    0.53048    1.000
    N4897    N        0.96267    0.34940    0.49820    1.000
    N4898    N        0.88875    0.35950    0.60601    1.000
    N4899    N        0.76166    0.33323    0.69991    1.000
    Si4900   Si       0.78213    0.32981    0.73877    1.000
    N4901    N        0.86639    0.33715    0.66328    1.000
    Si4902   Si       0.86654    0.32485    0.62186    1.000
    Si4903   Si       0.92774    0.34345    0.73744    1.000
    N4904    N        0.96866    0.32651    0.73730    1.000
    N4905    N        0.97673    0.31688    0.63099    1.000
    N4906    N        0.92520    0.35497    0.69403    1.000
    Si4907   Si       0.90617    0.31894    0.67763    1.000
    Si4908   Si       0.82482    0.33978    0.78339    1.000
    Si4909   Si       0.76905    0.34602    0.84279    1.000
    N4910    N        0.80926    0.34705    0.82507    1.000
    Si4911   Si       0.82192    0.30768    0.84223    1.000
    N4912    N        0.85752    0.30968    0.80806    1.000
    N4913    N        0.74806    0.31740    0.76235    1.000
    N4914    N        0.81891    0.30752    0.75040    1.000
    N4915    N        0.78510    0.31428    0.87162    1.000
    N4916    N        0.92417    0.33200    0.81285    1.000
    Si4917   Si       0.88798    0.33690    0.79189    1.000
    N4918    N        0.97382    0.32656    0.86262    1.000
    Si4919   Si       0.96165    0.31344    0.82260    1.000
    N4920    N        0.89564    0.31758    0.75338    1.000
    N4921    N        0.85124    0.30933    0.87471    1.000
    Si4922   Si       0.85485    0.34913    0.89240    1.000
    N4923    N        0.82052    0.32285    0.97412    1.000
    N4924    N        0.75297    0.32071    0.98733    1.000
    N4925    N        0.74396    0.33633    0.91970    1.000
    Si4926   Si       0.85933    0.30315    0.98305    1.000
    N4927    N        0.88782    0.34488    0.91950    1.000
    Si4928   Si       0.98353    0.30509    0.90109    1.000
    Si4929   Si       0.91306    0.30954    0.93065    1.000
    Si4930   Si       0.97356    0.35687    0.94813    1.000
    N4931    N        0.95604    0.31775    0.93190    1.000
    Si4932   Si       0.84742    0.38882    0.02978    1.000
    N4933    N        0.85192    0.40405    0.11323    1.000
    N4934    N        0.75018    0.38788    0.01032    1.000
    Si4935   Si       0.85787    0.36339    0.09533    1.000
    N4936    N        0.83353    0.36129    0.06046    1.000
    N4937    N        0.94786    0.41096    0.01468    1.000
    Si4938   Si       0.92411    0.39093    0.09623    1.000
    N4939    N        0.96605    0.38446    0.08511    1.000
    N4940    N        0.88786    0.37716    0.01542    1.000
    N4941    N        0.82435    0.37249    0.16287    1.000
    Si4942   Si       0.78284    0.37031    0.14793    1.000
    N4943    N        0.76256    0.41142    0.14418    1.000
    Si4944   Si       0.84211    0.41073    0.15414    1.000
    Si4945   Si       0.74912    0.41120    0.24767    1.000
    N4946    N        0.98750    0.36972    0.14830    1.000
    N4947    N        0.94034    0.39557    0.20133    1.000
    N4948    N        0.92098    0.37759    0.13768    1.000
    N4949    N        0.87835    0.41820    0.17680    1.000
    Si4950   Si       0.90676    0.38439    0.17698    1.000
    Si4951   Si       0.97853    0.39452    0.18118    1.000
    Si4952   Si       0.76402    0.40233    0.31416    1.000
    N4953    N        0.78289    0.36345    0.32217    1.000
    N4954    N        0.86118    0.36666    0.27840    1.000
    Si4955   Si       0.87907    0.40702    0.28272    1.000
    N4956    N        0.90513    0.39145    0.31291    1.000
    Si4957   Si       0.94708    0.39888    0.31103    1.000
    N4958    N        0.96304    0.40455    0.27119    1.000
    N4959    N        0.96309    0.36135    0.32670    1.000
    Si4960   Si       0.77430    0.39851    0.47948    1.000
    N4961    N        0.80519    0.38603    0.45052    1.000
    Si4962   Si       0.80242    0.40525    0.40973    1.000
    N4963    N        0.76946    0.38033    0.39211    1.000
    N4964    N        0.84050    0.40000    0.39187    1.000
    N4965    N        0.74193    0.41326    0.45329    1.000
    Si4966   Si       0.86459    0.36436    0.38901    1.000
    N4967    N        0.97326    0.40390    0.39969    1.000
    Si4968   Si       0.93856    0.38365    0.41566    1.000
    N4969    N        0.92661    0.39366    0.45880    1.000
    N4970    N        0.90153    0.38716    0.39568    1.000
    Si4971   Si       0.94816    0.39143    0.49648    1.000
    Si4972   Si       0.80245    0.39782    0.54739    1.000
    N4973    N        0.84506    0.39242    0.55198    1.000
    Si4974   Si       0.76599    0.41080    0.61331    1.000
    N4975    N        0.77919    0.36473    0.56007    1.000
    Si4976   Si       0.74351    0.36604    0.53571    1.000
    Si4977   Si       0.86122    0.39526    0.59401    1.000
    N4978    N        0.79735    0.42270    0.50938    1.000
    N4979    N        0.76037    0.36055    0.49563    1.000
    Si4980   Si       0.87037    0.38787    0.51725    1.000
    N4981    N        0.94902    0.39497    0.58054    1.000
    N4982    N        0.91377    0.39908    0.52459    1.000
    Si4983   Si       0.92014    0.38954    0.61243    1.000
    N4984    N        0.97833    0.42152    0.49519    1.000
    N4985    N        0.84711    0.41276    0.73794    1.000
    Si4986   Si       0.85039    0.37704    0.66756    1.000
    N4987    N        0.77176    0.37178    0.62953    1.000
    Si4988   Si       0.77183    0.36843    0.67193    1.000
    Si4989   Si       0.80814    0.39712    0.72952    1.000
    N4990    N        0.81163    0.38082    0.68942    1.000
    N4991    N        0.83806    0.39708    0.63041    1.000
    Si4992   Si       0.92610    0.39596    0.68425    1.000
    N4993    N        0.88277    0.40447    0.68160    1.000
    N4994    N        0.94223    0.40651    0.64626    1.000
    Si4995   Si       0.83684    0.38939    0.82455    1.000
    N4996    N        0.75427    0.37356    0.80951    1.000
    Si4997   Si       0.75867    0.39858    0.77334    1.000
    N4998    N        0.85761    0.36815    0.78902    1.000
    N4999    N        0.79915    0.41572    0.82915    1.000
    Si5000   Si       0.75726    0.40846    0.83796    1.000
    N5001    N        0.79691    0.36609    0.75845    1.000
    N5002    N        0.86149    0.38347    0.86314    1.000
    N5003    N        0.76501    0.37809    0.87114    1.000
    Si5004   Si       0.87289    0.40531    0.76978    1.000
    N5005    N        0.91216    0.37803    0.75791    1.000
    N5006    N        0.97614    0.40345    0.85608    1.000
    Si5007   Si       0.93611    0.41474    0.75661    1.000
    Si5008   Si       0.88586    0.41742    0.87467    1.000
    N5009    N        0.77604    0.37877    0.95345    1.000
    Si5010   Si       0.77980    0.40878    0.98591    1.000
    N5011    N        0.81963    0.39099    0.99531    1.000
    Si5012   Si       0.81749    0.36308    0.96034    1.000
    Si5013   Si       0.77729    0.36467    0.91105    1.000
    N5014    N        0.82115    0.36094    0.91654    1.000
    Si5015   Si       0.74382    0.35885    0.97498    1.000
    N5016    N        0.88468    0.40836    0.95731    1.000
    N5017    N        0.98092    0.37705    0.91071    1.000
    N5018    N        0.92114    0.40595    0.89826    1.000
    Si5019   Si       0.90636    0.38156    0.93099    1.000
    Si5020   Si       0.91307    0.40106    0.98886    1.000
    N5021    N        0.93578    0.37391    0.96123    1.000
    Si5022   Si       0.96295    0.41495    0.89539    1.000
    N5023    N        0.79666    0.44436    0.09077    1.000
    Si5024   Si       0.83850    0.43496    0.08751    1.000
    Si5025   Si       0.85639    0.45905    0.01743    1.000
    N5026    N        0.84745    0.42920    0.04580    1.000
    N5027    N        0.85593    0.47309    0.10325    1.000
    Si5028   Si       0.76007    0.42406    0.10330    1.000
    Si5029   Si       0.92676    0.43998    0.04526    1.000
    N5030    N        0.90080    0.45066    0.01203    1.000
    N5031    N        0.97101    0.45155    0.05183    1.000
    N5032    N        0.91386    0.43020    0.08608    1.000
    Si5033   Si       0.89896    0.46871    0.10027    1.000
    Si5034   Si       0.97807    0.44212    0.00887    1.000
    N5035    N        0.82148    0.44863    0.15969    1.000
    Si5036   Si       0.80415    0.44635    0.19995    1.000
    N5037    N        0.83126    0.43122    0.22936    1.000
    N5038    N        0.76720    0.42591    0.20841    1.000
    N5039    N        0.74012    0.47597    0.17685    1.000
    N5040    N        0.89718    0.42011    0.24696    1.000
    N5041    N        0.98067    0.43408    0.16243    1.000
    Si5042   Si       0.87164    0.43733    0.21689    1.000
    Si5043   Si       0.93997    0.41994    0.23785    1.000
    N5044    N        0.94373    0.46204    0.22400    1.000
    Si5045   Si       0.97496    0.46173    0.19396    1.000
    N5046    N        0.87064    0.48001    0.20909    1.000
    Si5047   Si       0.81770    0.43713    0.26925    1.000
    N5048    N        0.76748    0.43206    0.34496    1.000
    N5049    N        0.84820    0.43175    0.29966    1.000
    Si5050   Si       0.75726    0.47243    0.34398    1.000
    N5051    N        0.78074    0.41584    0.27613    1.000
    Si5052   Si       0.86433    0.46436    0.32469    1.000
    N5053    N        0.88433    0.44702    0.35908    1.000
    Si5054   Si       0.92449    0.46232    0.34870    1.000
    N5055    N        0.95481    0.43228    0.33939    1.000
    N5056    N        0.80415    0.44710    0.41843    1.000
    Si5057   Si       0.84074    0.46914    0.43478    1.000
    Si5058   Si       0.96865    0.46130    0.47098    1.000
    N5059    N        0.92433    0.45815    0.47827    1.000
    N5060    N        0.87505    0.44453    0.43013    1.000
    Si5061   Si       0.89793    0.42728    0.46435    1.000
    Si5062   Si       0.87650    0.42316    0.39266    1.000
    N5063    N        0.86189    0.42126    0.49156    1.000
    Si5064   Si       0.81194    0.46153    0.57443    1.000
    N5065    N        0.83809    0.45964    0.60976    1.000
    N5066    N        0.78448    0.42688    0.57549    1.000
    N5067    N        0.84295    0.46744    0.54258    1.000
    Si5068   Si       0.83136    0.44862    0.50410    1.000
    Si5069   Si       0.74338    0.43356    0.56047    1.000
    N5070    N        0.89418    0.42492    0.59223    1.000
    Si5071   Si       0.88121    0.46691    0.60313    1.000
    N5072    N        0.95089    0.45644    0.55763    1.000
    Si5073   Si       0.92419    0.42429    0.55952    1.000
    Si5074   Si       0.81932    0.43791    0.64051    1.000
    N5075    N        0.83195    0.45302    0.67989    1.000
    N5076    N        0.77660    0.44127    0.64151    1.000
    Si5077   Si       0.75210    0.47474    0.65143    1.000
    N5078    N        0.77796    0.42554    0.74335    1.000
    N5079    N        0.94521    0.42427    0.71631    1.000
    Si5080   Si       0.86424    0.43587    0.70279    1.000
    Si5081   Si       0.98071    0.44938    0.70723    1.000
    N5082    N        0.88909    0.47115    0.70703    1.000
    Si5083   Si       0.98267    0.41966    0.64124    1.000
    Si5084   Si       0.90661    0.47681    0.74610    1.000
    Si5085   Si       0.81752    0.45458    0.82475    1.000
    Si5086   Si       0.77048    0.46316    0.76633    1.000
    N5087    N        0.85359    0.42797    0.80557    1.000
    N5088    N        0.80198    0.46929    0.86379    1.000
    N5089    N        0.74541    0.43796    0.79485    1.000
    N5090    N        0.80451    0.47800    0.79056    1.000
    N5091    N        0.90385    0.44162    0.77251    1.000
    Si5092   Si       0.88534    0.45749    0.81013    1.000
    N5093    N        0.90677    0.43991    0.84436    1.000
    N5094    N        0.97291    0.46773    0.83891    1.000
    Si5095   Si       0.98474    0.42910    0.82410    1.000
    Si5096   Si       0.93186    0.47549    0.84730    1.000
    N5097    N        0.96663    0.42174    0.78447    1.000
    N5098    N        0.77120    0.44888    0.97632    1.000
    N5099    N        0.84314    0.46123    0.97559    1.000
    N5100    N        0.75074    0.43882    0.90191    1.000
    Si5101   Si       0.77514    0.47340    0.89707    1.000
    Si5102   Si       0.84378    0.47609    0.87658    1.000
    N5103    N        0.86155    0.44419    0.89969    1.000
    Si5104   Si       0.80313    0.47694    0.97006    1.000
    N5105    N        0.90718    0.47207    0.94450    1.000
    N5106    N        0.96050    0.47827    0.99183    1.000
    Si5107   Si       0.87035    0.44712    0.94431    1.000
    N5108    N        0.97058    0.45684    0.90855    1.000
    N5109    N        0.77757    0.50938    0.05991    1.000
    N5110    N        0.84908    0.50024    0.03427    1.000
    Si5111   Si       0.80872    0.51866    0.03184    1.000
    Si5112   Si       0.77462    0.48311    0.09387    1.000
    N5113    N        0.97024    0.49031    0.10923    1.000
    Si5114   Si       0.89045    0.51488    0.03915    1.000
    Si5115   Si       0.95909    0.48899    0.06697    1.000
    N5116    N        0.91511    0.48704    0.06244    1.000
    N5117    N        0.97650    0.52835    0.05529    1.000
    Si5118   Si       0.98231    0.53212    0.09877    1.000
    N5119    N        0.79144    0.50320    0.12906    1.000
    Si5120   Si       0.76224    0.50197    0.20398    1.000
    N5121    N        0.85119    0.51695    0.15577    1.000
    Si5122   Si       0.83670    0.49857    0.23082    1.000
    N5123    N        0.80353    0.48940    0.20499    1.000
    N5124    N        0.75007    0.51023    0.24346    1.000
    Si5125   Si       0.82930    0.48564    0.13769    1.000
    N5126    N        0.84867    0.53874    0.24487    1.000
    Si5127   Si       0.88647    0.50004    0.17304    1.000
    N5128    N        0.97244    0.52400    0.23449    1.000
    N5129    N        0.91591    0.52839    0.18780    1.000
    Si5130   Si       0.94429    0.51152    0.14476    1.000
    N5131    N        0.97335    0.49930    0.17377    1.000
    N5132    N        0.90948    0.48424    0.13928    1.000
    Si5133   Si       0.93494    0.50617    0.22336    1.000
    Si5134   Si       0.80452    0.50663    0.30175    1.000
    N5135    N        0.76398    0.49254    0.30691    1.000
    N5136    N        0.83268    0.49411    0.33382    1.000
    N5137    N        0.81998    0.48306    0.26829    1.000
    Si5138   Si       0.91884    0.51745    0.29815    1.000
    N5139    N        0.91001    0.51546    0.25629    1.000
    N5140    N        0.96156    0.52703    0.30499    1.000
    N5141    N        0.90330    0.48045    0.31335    1.000
    Si5142   Si       0.82029    0.50762    0.37209    1.000
    N5143    N        0.77912    0.49375    0.37554    1.000
    N5144    N        0.84706    0.50162    0.40545    1.000
    N5145    N        0.77599    0.50609    0.44792    1.000
    Si5146   Si       0.80697    0.51873    0.47500    1.000
    N5147    N        0.83226    0.48241    0.47504    1.000
    Si5148   Si       0.73728    0.52592    0.45413    1.000
    Si5149   Si       0.77332    0.47804    0.41578    1.000
    Si5150   Si       0.96509    0.51549    0.39975    1.000
    N5151    N        0.93966    0.49332    0.37414    1.000
    N5152    N        0.97067    0.49275    0.43695    1.000
    N5153    N        0.78986    0.49709    0.57428    1.000
    Si5154   Si       0.74637    0.50278    0.57452    1.000
    Si5155   Si       0.80660    0.53154    0.55436    1.000
    N5156    N        0.78910    0.53114    0.51487    1.000
    N5157    N        0.84861    0.53719    0.55168    1.000
    Si5158   Si       0.87160    0.50196    0.54020    1.000
    N5159    N        0.89916    0.49291    0.57293    1.000
    N5160    N        0.95396    0.52827    0.54643    1.000
    N5161    N        0.89295    0.52431    0.50748    1.000
    Si5162   Si       0.94206    0.49569    0.57446    1.000
    N5163    N        0.95766    0.51221    0.61163    1.000
    N5164    N        0.81336    0.50627    0.73001    1.000
    Si5165   Si       0.76986    0.52339    0.71475    1.000
    N5166    N        0.84680    0.52527    0.67577    1.000
    N5167    N        0.77521    0.50058    0.67889    1.000
    Si5168   Si       0.81787    0.49462    0.68825    1.000
    N5169    N        0.75164    0.49719    0.74913    1.000
    Si5170   Si       0.98153    0.49750    0.64455    1.000
    Si5171   Si       0.95531    0.51716    0.70997    1.000
    N5172    N        0.96929    0.48315    0.68503    1.000
    Si5173   Si       0.88605    0.50540    0.67976    1.000
    N5174    N        0.91730    0.53207    0.69332    1.000
    N5175    N        0.89253    0.48466    0.64121    1.000
    Si5176   Si       0.83145    0.50441    0.77016    1.000
    N5177    N        0.85731    0.48422    0.83551    1.000
    Si5178   Si       0.87815    0.52092    0.82248    1.000
    N5179    N        0.87569    0.50201    0.76341    1.000
    Si5180   Si       0.93694    0.52125    0.78818    1.000
    N5181    N        0.91416    0.49753    0.81416    1.000
    N5182    N        0.97445    0.52771    0.80957    1.000
    N5183    N        0.94026    0.50264    0.74816    1.000
    N5184    N        0.80372    0.48715    0.92823    1.000
    N5185    N        0.85567    0.51205    0.89461    1.000
    Si5186   Si       0.82270    0.52648    0.91824    1.000
    N5187    N        0.74530    0.50528    0.89514    1.000
    Si5188   Si       0.75394    0.53365    0.98338    1.000
    N5189    N        0.78960    0.51201    0.99152    1.000
    Si5190   Si       0.93895    0.48576    0.91743    1.000
    Si5191   Si       0.89374    0.53174    0.89010    1.000
    Si5192   Si       0.98468    0.50555    0.96832    1.000
    N5193    N        0.95623    0.51867    0.94016    1.000
    Si5194   Si       0.91702    0.48009    0.98413    1.000
    N5195    N        0.92206    0.50076    0.88155    1.000
    N5196    N        0.90124    0.51875    0.99645    1.000
    N5197    N        0.81928    0.56013    0.02981    1.000
    Si5198   Si       0.85067    0.56857    0.05825    1.000
    N5199    N        0.75241    0.55716    0.02143    1.000
    N5200    N        0.84522    0.55191    0.09719    1.000
    Si5201   Si       0.78769    0.58765    0.01849    1.000
    N5202    N        0.75524    0.55475    0.10432    1.000
    N5203    N        0.89303    0.55674    0.05519    1.000
    Si5204   Si       0.90366    0.59963    0.05995    1.000
    Si5205   Si       0.74946    0.56821    0.20898    1.000
    N5206    N        0.80709    0.57439    0.14432    1.000
    N5207    N        0.78819    0.57705    0.23033    1.000
    Si5208   Si       0.84738    0.55640    0.13838    1.000
    Si5209   Si       0.77761    0.54256    0.13896    1.000
    N5210    N        0.75754    0.53889    0.17869    1.000
    Si5211   Si       0.90802    0.57370    0.18469    1.000
    N5212    N        0.89960    0.58168    0.22931    1.000
    N5213    N        0.95068    0.54823    0.12409    1.000
    N5214    N        0.87769    0.58191    0.15327    1.000
    Si5215   Si       0.96343    0.58442    0.14595    1.000
    Si5216   Si       0.76993    0.57313    0.31199    1.000
    N5217    N        0.80209    0.54899    0.29447    1.000
    N5218    N        0.76028    0.57885    0.35376    1.000
    Si5219   Si       0.81912    0.56634    0.25871    1.000
    N5220    N        0.89235    0.55342    0.30061    1.000
    N5221    N        0.94149    0.57962    0.34545    1.000
    Si5222   Si       0.89799    0.57576    0.33953    1.000
    Si5223   Si       0.97578    0.55217    0.33689    1.000
    Si5224   Si       0.88888    0.55159    0.25748    1.000
    N5225    N        0.81230    0.54795    0.38485    1.000
    Si5226   Si       0.77105    0.56245    0.39362    1.000
    N5227    N        0.83018    0.54986    0.45716    1.000
    Si5228   Si       0.85498    0.54924    0.40905    1.000
    N5229    N        0.77830    0.58655    0.42980    1.000
    Si5230   Si       0.81938    0.59048    0.44248    1.000
    N5231    N        0.84781    0.59431    0.41201    1.000
    N5232    N        0.95179    0.57173    0.49563    1.000
    N5233    N        0.88663    0.55887    0.37609    1.000
    N5234    N        0.95161    0.55496    0.41856    1.000
    Si5235   Si       0.96879    0.56862    0.45576    1.000
    Si5236   Si       0.87129    0.54902    0.47878    1.000
    Si5237   Si       0.91286    0.57023    0.40640    1.000
    N5238    N        0.88934    0.55032    0.44016    1.000
    N5239    N        0.79296    0.56265    0.58130    1.000
    Si5240   Si       0.75267    0.55681    0.52152    1.000
    Si5241   Si       0.75461    0.58460    0.58403    1.000
    Si5242   Si       0.81772    0.59423    0.59998    1.000
    N5243    N        0.86588    0.58544    0.50285    1.000
    Si5244   Si       0.86587    0.57609    0.54492    1.000
    Si5245   Si       0.92529    0.55051    0.52261    1.000
    N5246    N        0.90806    0.57714    0.55196    1.000
    N5247    N        0.94662    0.58156    0.61209    1.000
    Si5248   Si       0.97505    0.55040    0.61087    1.000
    Si5249   Si       0.98757    0.58641    0.51695    1.000
    Si5250   Si       0.82732    0.56457    0.67841    1.000
    Si5251   Si       0.77621    0.58613    0.73775    1.000
    N5252    N        0.83355    0.58017    0.63724    1.000
    N5253    N        0.79069    0.56174    0.70400    1.000
    Si5254   Si       0.90875    0.57343    0.70425    1.000
    N5255    N        0.93448    0.59254    0.73312    1.000
    N5256    N        0.87559    0.56941    0.73160    1.000
    N5257    N        0.90456    0.59512    0.66652    1.000
    Si5258   Si       0.82049    0.58070    0.80065    1.000
    N5259    N        0.78683    0.57387    0.82717    1.000
    N5260    N        0.75304    0.56555    0.76807    1.000
    Si5261   Si       0.74721    0.58021    0.80851    1.000
    N5262    N        0.84252    0.54096    0.79563    1.000
    Si5263   Si       0.78061    0.58234    0.86817    1.000
    N5264    N        0.81394    0.59694    0.75965    1.000
    N5265    N        0.88808    0.55183    0.85242    1.000
    N5266    N        0.91251    0.55627    0.78634    1.000
    Si5267   Si       0.87489    0.54697    0.76723    1.000
    Si5268   Si       0.93006    0.59385    0.77655    1.000
    Si5269   Si       0.89086    0.59488    0.84294    1.000
    Si5270   Si       0.75221    0.54453    0.91034    1.000
    N5271    N        0.74863    0.56138    0.95052    1.000
    N5272    N        0.83836    0.55012    0.95000    1.000
    N5273    N        0.79429    0.55115    0.89659    1.000
    Si5274   Si       0.83549    0.59116    0.96218    1.000
    N5275    N        0.96643    0.57734    0.90076    1.000
    N5276    N        0.87511    0.58521    0.98351    1.000
    N5277    N        0.90288    0.55192    0.92610    1.000
    Si5278   Si       0.94362    0.55960    0.93562    1.000
    Si5279   Si       0.87971    0.54560    0.96385    1.000
    N5280    N        0.94480    0.58970    0.96564    1.000
    N5281    N        0.79447    0.62496    0.04412    1.000
    Si5282   Si       0.82908    0.64073    0.07001    1.000
    N5283    N        0.83891    0.62700    0.11345    1.000
    Si5284   Si       0.76080    0.65026    0.03100    1.000
    N5285    N        0.86110    0.60913    0.05639    1.000
    N5286    N        0.73983    0.61829    0.00414    1.000
    N5287    N        0.91384    0.61204    0.09977    1.000
    Si5288   Si       0.97181    0.62185    0.03010    1.000
    Si5289   Si       0.94166    0.64589    0.09313    1.000
    N5290    N        0.92980    0.61086    0.02800    1.000
    N5291    N        0.97214    0.64947    0.06267    1.000
    Si5292   Si       0.85686    0.65556    0.18704    1.000
    N5293    N        0.76836    0.63689    0.13024    1.000
    Si5294   Si       0.79498    0.61467    0.20937    1.000
    N5295    N        0.82345    0.62652    0.18009    1.000
    N5296    N        0.75451    0.60834    0.18935    1.000
    Si5297   Si       0.80517    0.61732    0.13982    1.000
    N5298    N        0.79473    0.64818    0.23822    1.000
    Si5299   Si       0.73631    0.65083    0.21677    1.000
    N5300    N        0.88546    0.64972    0.22002    1.000
    Si5301   Si       0.92858    0.64742    0.16782    1.000
    N5302    N        0.88640    0.65595    0.15173    1.000
    Si5303   Si       0.98270    0.64965    0.21823    1.000
    N5304    N        0.93499    0.60585    0.17310    1.000
    Si5305   Si       0.88049    0.61678    0.12644    1.000
    N5306    N        0.78106    0.61359    0.29603    1.000
    Si5307   Si       0.81356    0.63299    0.27589    1.000
    Si5308   Si       0.74687    0.63859    0.28590    1.000
    N5309    N        0.84261    0.60499    0.25951    1.000
    N5310    N        0.75026    0.65020    0.36978    1.000
    N5311    N        0.87923    0.61662    0.34342    1.000
    Si5312   Si       0.96987    0.61351    0.34209    1.000
    N5313    N        0.90624    0.62967    0.28166    1.000
    Si5314   Si       0.94827    0.64461    0.27962    1.000
    Si5315   Si       0.87739    0.64515    0.31260    1.000
    N5316    N        0.98010    0.62657    0.25369    1.000
    N5317    N        0.96202    0.65100    0.31995    1.000
    Si5318   Si       0.88191    0.61639    0.24898    1.000
    N5319    N        0.82556    0.62685    0.46725    1.000
    N5320    N        0.76380    0.63289    0.48270    1.000
    Si5321   Si       0.74979    0.60014    0.45840    1.000
    Si5322   Si       0.86282    0.62528    0.48753    1.000
    Si5323   Si       0.95272    0.63140    0.41419    1.000
    N5324    N        0.89707    0.64717    0.46904    1.000
    N5325    N        0.91235    0.61621    0.40728    1.000
    N5326    N        0.98013    0.62506    0.38237    1.000
    Si5327   Si       0.87300    0.61831    0.38595    1.000
    N5328    N        0.97245    0.61273    0.44718    1.000
    N5329    N        0.78052    0.62044    0.60092    1.000
    N5330    N        0.84815    0.60299    0.57129    1.000
    Si5331   Si       0.75278    0.65053    0.58330    1.000
    Si5332   Si       0.74470    0.63274    0.52112    1.000
    N5333    N        0.86299    0.65249    0.52186    1.000
    Si5334   Si       0.86596    0.64172    0.56415    1.000
    N5335    N        0.75320    0.59509    0.54129    1.000
    N5336    N        0.97187    0.60595    0.55270    1.000
    N5337    N        0.90935    0.64319    0.57698    1.000
    Si5338   Si       0.93365    0.60331    0.57473    1.000
    N5339    N        0.75671    0.62267    0.72055    1.000
    Si5340   Si       0.77494    0.64680    0.64057    1.000
    Si5341   Si       0.85064    0.60596    0.73368    1.000
    N5342    N        0.84010    0.60379    0.69298    1.000
    Si5343   Si       0.86527    0.60608    0.65727    1.000
    Si5344   Si       0.96121    0.62254    0.71582    1.000
    N5345    N        0.86534    0.64509    0.64239    1.000
    Si5346   Si       0.94399    0.60506    0.64898    1.000
    N5347    N        0.97427    0.60374    0.67902    1.000
    N5348    N        0.94134    0.64686    0.63611    1.000
    Si5349   Si       0.77073    0.64835    0.84856    1.000
    N5350    N        0.85559    0.60432    0.81723    1.000
    N5351    N        0.74424    0.62328    0.82429    1.000
    Si5352   Si       0.87635    0.63610    0.79316    1.000
    N5353    N        0.91353    0.62115    0.80995    1.000
    N5354    N        0.97033    0.63251    0.85729    1.000
    Si5355   Si       0.94084    0.64861    0.82965    1.000
    N5356    N        0.87798    0.63428    0.75084    1.000
    Si5357   Si       0.98812    0.63586    0.78400    1.000
    N5358    N        0.96982    0.59730    0.79274    1.000
    N5359    N        0.79117    0.62420    0.87901    1.000
    Si5360   Si       0.75330    0.60344    0.96442    1.000
    N5361    N        0.84372    0.62373    0.93560    1.000
    Si5362   Si       0.82095    0.64428    0.90337    1.000
    N5363    N        0.79618    0.60032    0.97823    1.000
    N5364    N        0.74023    0.63355    0.93671    1.000
    Si5365   Si       0.94851    0.61647    0.88988    1.000
    N5366    N        0.90721    0.61833    0.87619    1.000
    N5367    N        0.89167    0.64739    0.98453    1.000
    Si5368   Si       0.91094    0.60883    0.98978    1.000
    Si5369   Si       0.97455    0.62151    0.95886    1.000
    N5370    N        0.95622    0.64235    0.92521    1.000
    Si5371   Si       0.88983    0.65722    0.88056    1.000
    N5372    N        0.98717    0.64521    0.99490    1.000
    N5373    N        0.80041    0.67618    0.08399    1.000
    Si5374   Si       0.76191    0.66894    0.10141    1.000
    N5375    N        0.85106    0.67304    0.04899    1.000
    Si5376   Si       0.83107    0.70404    0.07307    1.000
    N5377    N        0.77591    0.68101    0.00210    1.000
    N5378    N        0.86034    0.71320    0.10372    1.000
    N5379    N        0.91299    0.67853    0.08830    1.000
    Si5380   Si       0.87151    0.67678    0.01159    1.000
    N5381    N        0.90202    0.70521    0.02600    1.000
    N5382    N        0.98045    0.71059    0.09362    1.000
    N5383    N        0.98590    0.71069    0.02734    1.000
    N5384    N        0.74605    0.70317    0.12382    1.000
    N5385    N        0.83310    0.68963    0.19972    1.000
    Si5386   Si       0.79550    0.68874    0.22120    1.000
    N5387    N        0.76327    0.68137    0.19303    1.000
    Si5388   Si       0.74600    0.71343    0.16833    1.000
    N5389    N        0.95450    0.66044    0.13319    1.000
    N5390    N        0.94584    0.67073    0.20172    1.000
    Si5391   Si       0.97347    0.70950    0.20426    1.000
    Si5392   Si       0.91165    0.68263    0.23045    1.000
    Si5393   Si       0.89183    0.69207    0.12605    1.000
    Si5394   Si       0.95834    0.70379    0.13147    1.000
    Si5395   Si       0.84107    0.69647    0.32350    1.000
    N5396    N        0.81086    0.68827    0.35524    1.000
    N5397    N        0.75974    0.67623    0.30376    1.000
    Si5398   Si       0.76677    0.68281    0.34620    1.000
    Si5399   Si       0.74869    0.70658    0.27351    1.000
    N5400    N        0.78487    0.71772    0.25164    1.000
    N5401    N        0.83729    0.65827    0.29890    1.000
    N5402    N        0.88473    0.68558    0.32967    1.000
    Si5403   Si       0.97480    0.69132    0.33244    1.000
    N5404    N        0.93643    0.68333    0.26463    1.000
    N5405    N        0.94351    0.70916    0.35450    1.000
    N5406    N        0.79210    0.66707    0.42376    1.000
    Si5407   Si       0.82417    0.68138    0.39749    1.000
    Si5408   Si       0.74896    0.66092    0.41128    1.000
    N5409    N        0.80129    0.69459    0.48999    1.000
    Si5410   Si       0.79726    0.65919    0.46688    1.000
    N5411    N        0.86261    0.65841    0.40215    1.000
    N5412    N        0.86937    0.70941    0.47859    1.000
    Si5413   Si       0.96362    0.70051    0.45061    1.000
    N5414    N        0.94012    0.67479    0.42306    1.000
    Si5415   Si       0.93856    0.71399    0.39645    1.000
    Si5416   Si       0.89815    0.65832    0.42778    1.000
    Si5417   Si       0.76851    0.70208    0.51927    1.000
    N5418    N        0.84347    0.67287    0.58157    1.000
    N5419    N        0.75995    0.66700    0.54509    1.000
    N5420    N        0.76224    0.67921    0.61507    1.000
    Si5421   Si       0.84117    0.71341    0.59682    1.000
    N5422    N        0.96717    0.69349    0.58419    1.000
    Si5423   Si       0.92633    0.68745    0.57188    1.000
    N5424    N        0.91358    0.69796    0.53221    1.000
    N5425    N        0.90258    0.70027    0.60691    1.000
    Si5426   Si       0.88968    0.67948    0.50035    1.000
    Si5427   Si       0.97425    0.66753    0.61953    1.000
    N5428    N        0.75315    0.69119    0.71111    1.000
    Si5429   Si       0.84211    0.67438    0.66324    1.000
    Si5430   Si       0.83371    0.70347    0.72922    1.000
    N5431    N        0.83426    0.71043    0.63967    1.000
    N5432    N        0.86252    0.68126    0.70325    1.000
    N5433    N        0.80081    0.66016    0.67131    1.000
    Si5434   Si       0.78203    0.65871    0.71055    1.000
    N5435    N        0.80560    0.67432    0.74209    1.000
    N5436    N        0.93960    0.65969    0.70841    1.000
    Si5437   Si       0.90181    0.65669    0.62080    1.000
    Si5438   Si       0.89875    0.66571    0.72553    1.000
    Si5439   Si       0.96337    0.69365    0.69088    1.000
    N5440    N        0.98628    0.69290    0.65422    1.000
    Si5441   Si       0.78062    0.68227    0.77696    1.000
    Si5442   Si       0.83128    0.67596    0.83455    1.000
    N5443    N        0.79380    0.66246    0.81596    1.000
    N5444    N        0.86133    0.67433    0.80352    1.000
    N5445    N        0.81976    0.71444    0.84866    1.000
    N5446    N        0.91833    0.67711    0.85345    1.000
    N5447    N        0.96190    0.66825    0.79719    1.000
    N5448    N        0.90572    0.69765    0.75425    1.000
    Si5449   Si       0.87852    0.70991    0.78449    1.000
    Si5450   Si       0.97376    0.70879    0.80670    1.000
    N5451    N        0.84730    0.66033    0.87219    1.000
    N5452    N        0.74494    0.67166    0.87366    1.000
    N5453    N        0.79808    0.66969    0.92993    1.000
    Si5454   Si       0.80315    0.68621    0.96834    1.000
    N5455    N        0.84739    0.69055    0.97759    1.000
    Si5456   Si       0.75745    0.66762    0.91515    1.000
    Si5457   Si       0.93736    0.68252    0.92957    1.000
    N5458    N        0.94414    0.70138    0.96828    1.000
    Si5459   Si       0.98336    0.68840    0.99077    1.000
    Si5460   Si       0.86834    0.65915    0.95094    1.000
    N5461    N        0.96353    0.70693    0.90506    1.000
    N5462    N        0.89473    0.67283    0.92013    1.000
    N5463    N        0.83819    0.73868    0.04911    1.000
    N5464    N        0.77481    0.75251    0.02957    1.000
    N5465    N        0.81106    0.77102    0.11756    1.000
    Si5466   Si       0.76548    0.72441    0.99809    1.000
    Si5467   Si       0.81559    0.76916    0.03223    1.000
    Si5468   Si       0.84946    0.75191    0.12260    1.000
    Si5469   Si       0.98319    0.75483    0.02722    1.000
    N5470    N        0.94097    0.76248    0.01298    1.000
    N5471    N        0.91666    0.74999    0.07918    1.000
    Si5472   Si       0.92158    0.76016    0.12109    1.000
    Si5473   Si       0.89456    0.71291    0.06832    1.000
    Si5474   Si       0.85447    0.73039    0.20179    1.000
    N5475    N        0.83331    0.75694    0.22645    1.000
    N5476    N        0.84027    0.74086    0.16296    1.000
    Si5477   Si       0.80224    0.76162    0.16025    1.000
    N5478    N        0.76160    0.75244    0.17325    1.000
    N5479    N        0.96367    0.76892    0.12724    1.000
    N5480    N        0.95265    0.73674    0.22922    1.000
    Si5481   Si       0.91581    0.76067    0.22147    1.000
    N5482    N        0.92087    0.72158    0.14122    1.000
    N5483    N        0.89192    0.72174    0.21782    1.000
    Si5484   Si       0.81377    0.74718    0.26414    1.000
    N5485    N        0.83141    0.73446    0.30130    1.000
    Si5486   Si       0.84130    0.76675    0.32731    1.000
    N5487    N        0.74552    0.71754    0.35632    1.000
    N5488    N        0.87240    0.74440    0.35068    1.000
    Si5489   Si       0.94977    0.72521    0.27106    1.000
    N5490    N        0.92003    0.74321    0.29703    1.000
    Si5491   Si       0.90826    0.72235    0.33420    1.000
    N5492    N        0.98384    0.71792    0.29840    1.000
    Si5493   Si       0.81569    0.76035    0.41945    1.000
    N5494    N        0.81112    0.75725    0.46296    1.000
    N5495    N        0.83502    0.72253    0.40897    1.000
    N5496    N        0.77569    0.76256    0.40346    1.000
    Si5497   Si       0.83050    0.72607    0.48799    1.000
    Si5498   Si       0.74415    0.73165    0.39784    1.000
    Si5499   Si       0.89723    0.73472    0.45658    1.000
    Si5500   Si       0.86739    0.74576    0.39344    1.000
    N5501    N        0.93714    0.72621    0.47343    1.000
    N5502    N        0.97500    0.72699    0.41562    1.000
    Si5503   Si       0.97939    0.76772    0.43621    1.000
    N5504    N        0.90286    0.72956    0.41334    1.000
    Si5505   Si       0.80494    0.75442    0.55210    1.000
    N5506    N        0.77227    0.74751    0.52276    1.000
    N5507    N        0.80117    0.72665    0.58496    1.000
    N5508    N        0.83725    0.75245    0.52254    1.000
    Si5509   Si       0.77101    0.72022    0.61436    1.000
    N5510    N        0.86268    0.75174    0.59546    1.000
    Si5511   Si       0.98653    0.72757    0.56682    1.000
    Si5512   Si       0.92787    0.73583    0.51555    1.000
    N5513    N        0.96383    0.75224    0.53476    1.000
    N5514    N        0.90784    0.77142    0.52556    1.000
    Si5515   Si       0.83590    0.74794    0.66283    1.000
    N5516    N        0.76680    0.73450    0.65594    1.000
    Si5517   Si       0.77244    0.72787    0.69732    1.000
    N5518    N        0.81672    0.73244    0.70036    1.000
    N5519    N        0.75196    0.76130    0.71902    1.000
    Si5520   Si       0.89495    0.73999    0.62079    1.000
    N5521    N        0.93419    0.75722    0.63298    1.000
    N5522    N        0.93819    0.72855    0.70181    1.000
    N5523    N        0.87928    0.75162    0.66116    1.000
    Si5524   Si       0.92002    0.75662    0.67397    1.000
    Si5525   Si       0.93246    0.73017    0.74504    1.000
    N5526    N        0.84659    0.72996    0.76234    1.000
    Si5527   Si       0.80297    0.75254    0.85970    1.000
    N5528    N        0.77893    0.72334    0.78328    1.000
    Si5529   Si       0.77554    0.76549    0.78834    1.000
    Si5530   Si       0.84302    0.77186    0.75850    1.000
    Si5531   Si       0.91812    0.72050    0.85011    1.000
    N5532    N        0.95752    0.73619    0.84304    1.000
    N5533    N        0.90109    0.73320    0.81281    1.000
    N5534    N        0.97092    0.72601    0.76792    1.000
    N5535    N        0.91305    0.76787    0.75463    1.000
    Si5536   Si       0.99007    0.71561    0.87055    1.000
    Si5537   Si       0.79682    0.75276    0.93024    1.000
    N5538    N        0.83982    0.74493    0.92428    1.000
    N5539    N        0.77536    0.74725    0.89281    1.000
    N5540    N        0.79485    0.72928    0.96532    1.000
    Si5541   Si       0.84335    0.73598    0.96827    1.000
    N5542    N        0.95553    0.76521    0.94010    1.000
    N5543    N        0.90342    0.74550    0.88284    1.000
    Si5544   Si       0.86723    0.76259    0.89719    1.000
    N5545    N        0.88480    0.74615    0.97722    1.000
    Si5546   Si       0.91893    0.72799    0.99240    1.000
    Si5547   Si       0.98276    0.73209    0.93260    1.000
    Si5548   Si       0.79674    0.80605    0.09490    1.000
    N5549    N        0.80871    0.80685    0.05442    1.000
    N5550    N        0.75399    0.79265    0.08745    1.000
    Si5551   Si       0.74345    0.77275    0.04933    1.000
    N5552    N        0.88489    0.79916    0.03632    1.000
    N5553    N        0.94270    0.81425    0.06701    1.000
    Si5554   Si       0.92266    0.78093    0.04973    1.000
    N5555    N        0.88225    0.77872    0.12401    1.000
    N5556    N        0.73728    0.81886    0.15258    1.000
    N5557    N        0.80712    0.80178    0.18083    1.000
    Si5558   Si       0.81729    0.79721    0.22448    1.000
    N5559    N        0.75370    0.80945    0.22467    1.000
    N5560    N        0.84167    0.83153    0.23034    1.000
    Si5561   Si       0.74223    0.79103    0.18803    1.000
    Si5562   Si       0.89425    0.80845    0.15409    1.000
    N5563    N        0.97730    0.82243    0.17876    1.000
    Si5564   Si       0.88598    0.83264    0.24128    1.000
    N5565    N        0.92864    0.82809    0.13597    1.000
    N5566    N        0.97750    0.82324    0.23898    1.000
    Si5567   Si       0.96895    0.81014    0.13936    1.000
    N5568    N        0.90846    0.78076    0.18414    1.000
    Si5569   Si       0.79275    0.81195    0.30213    1.000
    N5570    N        0.80138    0.78696    0.33735    1.000
    N5571    N        0.80224    0.78846    0.26737    1.000
    Si5572   Si       0.77325    0.79124    0.37020    1.000
    N5573    N        0.75216    0.82779    0.29987    1.000
    N5574    N        0.86421    0.79542    0.30761    1.000
    Si5575   Si       0.97537    0.81209    0.28028    1.000
    Si5576   Si       0.90485    0.78399    0.29216    1.000
    N5577    N        0.93918    0.80698    0.30387    1.000
    N5578    N        0.90313    0.79090    0.24953    1.000
    N5579    N        0.84593    0.78354    0.39992    1.000
    Si5580   Si       0.78493    0.77801    0.49054    1.000
    Si5581   Si       0.86014    0.82478    0.39234    1.000
    N5582    N        0.89936    0.82408    0.41106    1.000
    Si5583   Si       0.94283    0.82310    0.40601    1.000
    N5584    N        0.94111    0.78954    0.43766    1.000
    N5585    N        0.96507    0.81568    0.36998    1.000
    Si5586   Si       0.90428    0.80484    0.45116    1.000
    N5587    N        0.88123    0.77303    0.46687    1.000
    N5588    N        0.81058    0.79307    0.57122    1.000
    Si5589   Si       0.84178    0.79067    0.60337    1.000
    Si5590   Si       0.81798    0.82284    0.54060    1.000
    N5591    N        0.79339    0.81830    0.50409    1.000
    N5592    N        0.85854    0.82022    0.52454    1.000
    N5593    N        0.86698    0.82734    0.60552    1.000
    Si5594   Si       0.86796    0.77825    0.50971    1.000
    N5595    N        0.93394    0.80460    0.58122    1.000
    Si5596   Si       0.94172    0.79221    0.54102    1.000
    N5597    N        0.96424    0.82092    0.51973    1.000
    Si5598   Si       0.95824    0.78405    0.61102    1.000
    Si5599   Si       0.77149    0.80216    0.73147    1.000
    N5600    N        0.79284    0.81673    0.69568    1.000
    Si5601   Si       0.78901    0.81672    0.65149    1.000
    N5602    N        0.75174    0.80044    0.63933    1.000
    N5603    N        0.85840    0.79372    0.72545    1.000
    N5604    N        0.82030    0.78496    0.64222    1.000
    Si5605   Si       0.83095    0.82649    0.71283    1.000
    N5606    N        0.96827    0.81397    0.64076    1.000
    N5607    N        0.92177    0.79581    0.69127    1.000
    Si5608   Si       0.90011    0.80053    0.72794    1.000
    Si5609   Si       0.94380    0.82787    0.67331    1.000
    Si5610   Si       0.83306    0.79670    0.82922    1.000
    N5611    N        0.80097    0.78331    0.75855    1.000
    N5612    N        0.79338    0.77707    0.82496    1.000
    N5613    N        0.86267    0.78730    0.79578    1.000
    N5614    N        0.83885    0.77609    0.86774    1.000
    N5615    N        0.93731    0.79694    0.81285    1.000
    Si5616   Si       0.96510    0.78059    0.84239    1.000
    Si5617   Si       0.90483    0.77293    0.79831    1.000
    Si5618   Si       0.75045    0.80930    0.92527    1.000
    Si5619   Si       0.81296    0.80975    0.97087    1.000
    N5620    N        0.78835    0.79483    0.93949    1.000
    N5621    N        0.83233    0.77834    0.99209    1.000
    Si5622   Si       0.94561    0.78756    0.97711    1.000
    Si5623   Si       0.88740    0.82576    0.94247    1.000
    Si5624   Si       0.92984    0.77578    0.90629    1.000
    N5625    N        0.90757    0.80806    0.97647    1.000
    N5626    N        0.89126    0.79630    0.91330    1.000
    N5627    N        0.95256    0.80203    0.87957    1.000
    N5628    N        0.96638    0.82593    0.97991    1.000
    Si5629   Si       0.87742    0.78478    0.99696    1.000
    N5630    N        0.84499    0.86025    0.03589    1.000
    Si5631   Si       0.80554    0.87808    0.10204    1.000
    N5632    N        0.78106    0.86890    0.06494    1.000
    Si5633   Si       0.80614    0.84550    0.03674    1.000
    Si5634   Si       0.74750    0.87978    0.03950    1.000
    N5635    N        0.81022    0.83905    0.12049    1.000
    N5636    N        0.79289    0.83809    0.99605    1.000
    N5637    N        0.89251    0.85930    0.08388    1.000
    Si5638   Si       0.93150    0.84560    0.09669    1.000
    N5639    N        0.90183    0.86474    0.00987    1.000
    N5640    N        0.96044    0.87734    0.09267    1.000
    Si5641   Si       0.88494    0.84264    0.04533    1.000
    Si5642   Si       0.86611    0.88931    0.01277    1.000
    N5643    N        0.73947    0.88365    0.18392    1.000
    Si5644   Si       0.82327    0.87157    0.22285    1.000
    N5645    N        0.80488    0.86834    0.18358    1.000
    Si5646   Si       0.82230    0.83641    0.16149    1.000
    N5647    N        0.86638    0.83955    0.16511    1.000
    N5648    N        0.91173    0.85213    0.21260    1.000
    Si5649   Si       0.88426    0.87408    0.18552    1.000
    Si5650   Si       0.95293    0.84396    0.20956    1.000
    N5651    N        0.97083    0.88373    0.21202    1.000
    N5652    N        0.81620    0.84767    0.30382    1.000
    Si5653   Si       0.79918    0.88682    0.29769    1.000
    Si5654   Si       0.85827    0.83795    0.31021    1.000
    N5655    N        0.86546    0.84383    0.35228    1.000
    N5656    N        0.88046    0.85518    0.27811    1.000
    N5657    N        0.93318    0.86969    0.33992    1.000
    Si5658   Si       0.89468    0.87709    0.35536    1.000
    Si5659   Si       0.95591    0.83418    0.33346    1.000
    Si5660   Si       0.74447    0.84895    0.41139    1.000
    Si5661   Si       0.80738    0.87919    0.42755    1.000
    N5662    N        0.77226    0.85764    0.44642    1.000
    N5663    N        0.83398    0.84886    0.41657    1.000
    Si5664   Si       0.76761    0.85300    0.49017    1.000
    N5665    N        0.75836    0.83380    0.37268    1.000
    Si5666   Si       0.98313    0.86878    0.45540    1.000
    N5667    N        0.90003    0.84264    0.47263    1.000
    N5668    N        0.95916    0.88518    0.48788    1.000
    N5669    N        0.95329    0.85939    0.42719    1.000
    Si5670   Si       0.90987    0.86597    0.43608    1.000
    N5671    N        0.90185    0.89043    0.39528    1.000
    N5672    N        0.81234    0.86153    0.55679    1.000
    Si5673   Si       0.78485    0.86469    0.59039    1.000
    N5674    N        0.74310    0.84835    0.58745    1.000
    N5675    N        0.85606    0.88712    0.50414    1.000
    Si5676   Si       0.82062    0.89225    0.52674    1.000
    N5677    N        0.97306    0.88183    0.56054    1.000
    Si5678   Si       0.95449    0.86241    0.52352    1.000
    N5679    N        0.91300    0.86041    0.54139    1.000
    N5680    N        0.91583    0.87479    0.60030    1.000
    Si5681   Si       0.88258    0.85384    0.50928    1.000
    Si5682   Si       0.90463    0.83825    0.58075    1.000
    N5683    N        0.80370    0.85028    0.62777    1.000
    N5684    N        0.85110    0.84294    0.67735    1.000
    Si5685   Si       0.84774    0.85363    0.63500    1.000
    N5686    N        0.89843    0.84504    0.73362    1.000
    Si5687   Si       0.94213    0.86217    0.73425    1.000
    N5688    N        0.96791    0.84854    0.70264    1.000
    Si5689   Si       0.88364    0.86614    0.69583    1.000
    N5690    N        0.91498    0.86250    0.66657    1.000
    Si5691   Si       0.79222    0.86093    0.83278    1.000
    Si5692   Si       0.79481    0.87165    0.76150    1.000
    N5693    N        0.75348    0.84051    0.82633    1.000
    N5694    N        0.83019    0.83865    0.83143    1.000
    N5695    N        0.76441    0.83888    0.75574    1.000
    N5696    N        0.79685    0.88279    0.87009    1.000
    N5697    N        0.79078    0.88944    0.79941    1.000
    N5698    N        0.83173    0.85114    0.75061    1.000
    Si5699   Si       0.87273    0.85499    0.83738    1.000
    Si5700   Si       0.87246    0.86330    0.76450    1.000
    N5701    N        0.96217    0.85939    0.83483    1.000
    N5702    N        0.89514    0.84963    0.80098    1.000
    N5703    N        0.96213    0.85145    0.77065    1.000
    Si5704   Si       0.93879    0.83984    0.80440    1.000
    N5705    N        0.78879    0.87368    0.93870    1.000
    Si5706   Si       0.76772    0.87491    0.89940    1.000
    Si5707   Si       0.76531    0.86297    0.97342    1.000
    Si5708   Si       0.83137    0.87399    0.94522    1.000
    N5709    N        0.74707    0.83579    0.89130    1.000
    N5710    N        0.84581    0.83359    0.95238    1.000
    N5711    N        0.85104    0.88567    0.91002    1.000
    Si5712   Si       0.93174    0.85348    0.98066    1.000
    Si5713   Si       0.94814    0.88857    0.93336    1.000
    N5714    N        0.90323    0.85308    0.87051    1.000
    N5715    N        0.97051    0.86752    0.90355    1.000
    Si5716   Si       0.94698    0.84617    0.87501    1.000
    Si5717   Si       0.89251    0.88072    0.90460    1.000
    N5718    N        0.91233    0.86020    0.93908    1.000
    Si5719   Si       0.75159    0.91874    0.10142    1.000
    Si5720   Si       0.81788    0.94284    0.10358    1.000
    N5721    N        0.83838    0.90374    0.10156    1.000
    N5722    N        0.78123    0.94495    0.08033    1.000
    N5723    N        0.76355    0.89485    0.00216    1.000
    N5724    N        0.98544    0.93810    0.09515    1.000
    Si5725   Si       0.97162    0.91949    0.00261    1.000
    N5726    N        0.87530    0.93184    0.02191    1.000
    Si5727   Si       0.95057    0.91836    0.08136    1.000
    N5728    N        0.94680    0.92746    0.03721    1.000
    N5729    N        0.90804    0.92475    0.09315    1.000
    Si5730   Si       0.88013    0.89504    0.10912    1.000
    N5731    N        0.85901    0.89259    0.21352    1.000
    Si5732   Si       0.77712    0.90129    0.17268    1.000
    N5733    N        0.77911    0.90175    0.12966    1.000
    N5734    N        0.78946    0.93414    0.20067    1.000
    Si5735   Si       0.78092    0.93156    0.24281    1.000
    N5736    N        0.95277    0.93830    0.15513    1.000
    Si5737   Si       0.91068    0.93802    0.15968    1.000
    Si5738   Si       0.94470    0.91594    0.22879    1.000
    N5739    N        0.88958    0.90040    0.15128    1.000
    N5740    N        0.91067    0.93192    0.20545    1.000
    Si5741   Si       0.86958    0.93313    0.21859    1.000
    Si5742   Si       0.75718    0.93524    0.33087    1.000
    N5743    N        0.82259    0.91099    0.32400    1.000
    Si5744   Si       0.85998    0.93540    0.32740    1.000
    Si5745   Si       0.81108    0.92260    0.36398    1.000
    N5746    N        0.75926    0.89924    0.30823    1.000
    N5747    N        0.80138    0.89425    0.25360    1.000
    N5748    N        0.86226    0.93545    0.26151    1.000
    N5749    N        0.85301    0.93497    0.36936    1.000
    N5750    N        0.73856    0.92573    0.24308    1.000
    Si5751   Si       0.88366    0.89791    0.27303    1.000
    N5752    N        0.88951    0.90657    0.31825    1.000
    N5753    N        0.96261    0.93054    0.31898    1.000
    N5754    N        0.92698    0.90047    0.26581    1.000
    Si5755   Si       0.93412    0.90089    0.30983    1.000
    Si5756   Si       0.96850    0.94775    0.35702    1.000
    Si5757   Si       0.98843    0.94347    0.28507    1.000
    Si5758   Si       0.74680    0.91699    0.39716    1.000
    N5759    N        0.82204    0.91297    0.45122    1.000
    N5760    N        0.79029    0.90011    0.39402    1.000
    Si5761   Si       0.86098    0.91729    0.47142    1.000
    N5762    N        0.95328    0.93629    0.39720    1.000
    Si5763   Si       0.91510    0.92579    0.41431    1.000
    N5764    N        0.90235    0.90746    0.45576    1.000
    Si5765   Si       0.93208    0.92052    0.48572    1.000
    N5766    N        0.76363    0.90533    0.58052    1.000
    N5767    N        0.81361    0.93295    0.54457    1.000
    Si5768   Si       0.76948    0.92340    0.53990    1.000
    Si5769   Si       0.77062    0.94061    0.60670    1.000
    N5770    N        0.81284    0.94862    0.61167    1.000
    N5771    N        0.77954    0.89034    0.51057    1.000
    N5772    N        0.92883    0.92472    0.52857    1.000
    N5773    N        0.94519    0.93336    0.59006    1.000
    Si5774   Si       0.93033    0.89684    0.56446    1.000
    N5775    N        0.79336    0.90955    0.73906    1.000
    N5776    N        0.74794    0.92721    0.64141    1.000
    Si5777   Si       0.76333    0.92630    0.68196    1.000
    N5778    N        0.80592    0.91846    0.67373    1.000
    Si5779   Si       0.83421    0.93032    0.64410    1.000
    Si5780   Si       0.82717    0.91709    0.71122    1.000
    N5781    N        0.86128    0.89573    0.63558    1.000
    N5782    N        0.86897    0.90528    0.70851    1.000
    N5783    N        0.93385    0.90374    0.73076    1.000
    Si5784   Si       0.89408    0.92273    0.73845    1.000
    Si5785   Si       0.90652    0.89312    0.63709    1.000
    Si5786   Si       0.95920    0.94548    0.63003    1.000
    Si5787   Si       0.95060    0.92616    0.69830    1.000
    N5788    N        0.93100    0.92628    0.65643    1.000
    Si5789   Si       0.78387    0.93276    0.80747    1.000
    N5790    N        0.76100    0.94140    0.84421    1.000
    Si5791   Si       0.86189    0.92518    0.81076    1.000
    N5792    N        0.85948    0.89669    0.84292    1.000
    N5793    N        0.87408    0.90796    0.77305    1.000
    N5794    N        0.75441    0.94367    0.95524    1.000
    Si5795   Si       0.83219    0.90703    0.87700    1.000
    Si5796   Si       0.85148    0.94314    0.98868    1.000
    N5797    N        0.84259    0.89964    0.97744    1.000
    Si5798   Si       0.77589    0.93612    0.99391    1.000
    N5799    N        0.83257    0.94901    0.88462    1.000
    N5800    N        0.92116    0.91202    0.90763    1.000
    N5801    N        0.95692    0.89141    0.97481    1.000
    Si5802   Si       0.76834    0.97838    0.05542    1.000
    N5803    N        0.84916    0.96633    0.08575    1.000
    N5804    N        0.74897    0.95672    0.02150    1.000
    N5805    N        0.74109    0.00133    0.08345    1.000
    N5806    N        0.78743    0.01009    0.03468    1.000
    Si5807   Si       0.88958    0.96311    0.09700    1.000
    N5808    N        0.91502    0.98076    0.06637    1.000
    Si5809   Si       0.91212    0.95317    0.03125    1.000
    N5810    N        0.84937    0.96721    0.20001    1.000
    N5811    N        0.80987    0.96044    0.14024    1.000
    N5812    N        0.78271    0.99840    0.19207    1.000
    Si5813   Si       0.81091    0.96648    0.18261    1.000
    Si5814   Si       0.95016    0.99239    0.24477    1.000
    N5815    N        0.89481    0.97327    0.13873    1.000
    Si5816   Si       0.76260    0.99241    0.28132    1.000
    Si5817   Si       0.83980    0.97189    0.26932    1.000
    N5818    N        0.79684    0.96596    0.26501    1.000
    N5819    N        0.85307    0.97475    0.31102    1.000
    N5820    N        0.78356    0.95655    0.35728    1.000
    N5821    N        0.73839    0.96252    0.30190    1.000
    N5822    N        0.97098    0.98997    0.35071    1.000
    N5823    N        0.96484    0.95094    0.24892    1.000
    N5824    N        0.81662    0.97508    0.41548    1.000
    Si5825   Si       0.85612    0.97095    0.39620    1.000
    Si5826   Si       0.77852    0.98186    0.39191    1.000
    N5827    N        0.79720    0.97006    0.48258    1.000
    N5828    N        0.75679    0.95102    0.42394    1.000
    Si5829   Si       0.79880    0.94827    0.44513    1.000
    Si5830   Si       0.90008    0.97774    0.45793    1.000
    N5831    N        0.86617    0.95983    0.47886    1.000
    Si5832   Si       0.97614    0.98476    0.46902    1.000
    N5833    N        0.89137    0.96204    0.41820    1.000
    N5834    N        0.93917    0.96132    0.47025    1.000
    N5835    N        0.84987    0.98595    0.54103    1.000
    Si5836   Si       0.83515    0.95832    0.57401    1.000
    N5837    N        0.74500    0.95854    0.52580    1.000
    Si5838   Si       0.83587    0.98408    0.49955    1.000
    N5839    N        0.74670    0.97436    0.59169    1.000
    Si5840   Si       0.76228    0.98845    0.49813    1.000
    N5841    N        0.98974    0.95543    0.55509    1.000
    N5842    N        0.87046    0.97751    0.59707    1.000
    N5843    N        0.92816    0.99428    0.56291    1.000
    Si5844   Si       0.94617    0.95745    0.55120    1.000
    Si5845   Si       0.88387    0.00250    0.56455    1.000
    N5846    N        0.98459    0.99952    0.50998    1.000
    N5847    N        0.82809    0.95960    0.72959    1.000
    N5848    N        0.76136    0.96293    0.70454    1.000
    N5849    N        0.85414    0.96256    0.66609    1.000
    Si5850   Si       0.78615    0.95237    0.73947    1.000
    Si5851   Si       0.75100    0.00489    0.70074    1.000
    Si5852   Si       0.86525    0.99162    0.63698    1.000
    Si5853   Si       0.86016    0.97885    0.70880    1.000
    N5854    N        0.89717    0.96466    0.73069    1.000
    N5855    N        0.96093    0.96733    0.71562    1.000
    N5856    N        0.95640    0.98845    0.62805    1.000
    Si5857   Si       0.82511    0.97621    0.84929    1.000
    N5858    N        0.77241    0.96339    0.77856    1.000
    Si5859   Si       0.75559    0.97865    0.86502    1.000
    Si5860   Si       0.74487    0.99419    0.78966    1.000
    N5861    N        0.79297    0.99956    0.86695    1.000
    N5862    N        0.82598    0.94851    0.81680    1.000
    Si5863   Si       0.93133    0.97188    0.82458    1.000
    N5864    N        0.95557    0.97030    0.78560    1.000
    N5865    N        0.94710    0.95492    0.86026    1.000
    N5866    N        0.89320    0.95323    0.81920    1.000
    Si5867   Si       0.93354    0.98217    0.74987    1.000
    Si5868   Si       0.85529    0.97347    0.91576    1.000
    Si5869   Si       0.75232    0.98847    0.94755    1.000
    N5870    N        0.81264    0.96065    0.99525    1.000
    N5871    N        0.74259    0.97626    0.90659    1.000
    Si5872   Si       0.80701    0.00460    0.99656    1.000
    Si5873   Si       0.97822    0.98463    0.95624    1.000
    Si5874   Si       0.90794    0.98155    0.95581    1.000
    Si5875   Si       0.92644    0.95395    0.89801    1.000
    N5876    N        0.94431    0.97131    0.93493    1.000
    N5877    N        0.86880    0.96044    0.95351    1.000
    N5878    N        0.92049    0.97942    0.99651    1.000
    N5879    N        0.89342    0.98044    0.89345    1.000
