# CIF file generated by openbabel 3.1.1, see https://openbabel.org
data_I
_chemical_name_common '3.01-78.aims'
_cell_length_a 39.884
_cell_length_b 39.884
_cell_length_c 39.884
_cell_angle_alpha 90
_cell_angle_beta 90
_cell_angle_gamma 90
loop_
    _atom_site_label
    _atom_site_type_symbol
    _atom_site_fract_x
    _atom_site_fract_y
    _atom_site_fract_z
    _atom_site_occupancy
    Si0      Si       0.09807    0.05426    0.03722    1.000
    N1       N        0.08598    0.02140    0.05883    1.000
    N2       N        0.01878    0.01169    0.07741    1.000
    Si3      Si       0.22923    0.04891    0.06157    1.000
    N4       N        0.21746    0.03578    0.02172    1.000
    N5       N        0.14194    0.04660    0.04764    1.000
    N6       N        0.13309    0.02164    0.11501    1.000
    Si7      Si       0.14749    0.03121    0.00350    1.000
    Si8      Si       0.12572    0.01297    0.07344    1.000
    N9       N        0.22755    0.01495    0.08556    1.000
    N10      N        0.08372    0.06797    0.12283    1.000
    Si11     Si       0.06737    0.04707    0.23115    1.000
    Si12     Si       0.05702    0.05963    0.15589    1.000
    N13      N        0.03913    0.01896    0.15184    1.000
    Si14     Si       0.99380    0.03937    0.23385    1.000
    N15      N        0.08180    0.06467    0.19335    1.000
    N16      N        0.02753    0.06604    0.22814    1.000
    N17      N        0.13700    0.06277    0.23970    1.000
    Si18     Si       0.18724    0.04950    0.17186    1.000
    N19      N        0.14693    0.06787    0.16631    1.000
    N20      N        0.21810    0.06404    0.14373    1.000
    Si21     Si       0.12733    0.06189    0.12661    1.000
    N22      N        0.19981    0.05187    0.21367    1.000
    Si23     Si       0.07827    0.04720    0.31826    1.000
    N24      N        0.07863    0.04833    0.27485    1.000
    Si25     Si       0.12188    0.03803    0.27232    1.000
    Si26     Si       0.20363    0.01550    0.30982    1.000
    N27      N        0.12250    0.04609    0.31613    1.000
    Si28     Si       0.14883    0.04021    0.35053    1.000
    N29      N        0.17573    0.02317    0.27653    1.000
    N30      N        0.22528    0.05120    0.32136    1.000
    N31      N        0.17651    0.00741    0.34181    1.000
    Si32     Si       0.21606    0.06679    0.36082    1.000
    Si33     Si       0.04591    0.00931    0.42645    1.000
    N34      N        0.04889    0.05044    0.41210    1.000
    N35      N        0.06405    0.02301    0.46577    1.000
    N36      N        0.22734    0.04701    0.40050    1.000
    Si37     Si       0.05285    0.06596    0.45483    1.000
    N38      N        0.12573    0.00822    0.44880    1.000
    Si39     Si       0.19549    0.05091    0.43013    1.000
    N40      N        0.11995    0.02898    0.38379    1.000
    Si41     Si       0.12116    0.04689    0.42551    1.000
    N42      N        0.19068    0.02421    0.46272    1.000
    N43      N        0.06661    0.00776    0.33470    1.000
    Si44     Si       0.17825    0.05883    0.24987    1.000
    Si45     Si       0.01726    0.05286    0.59816    1.000
    Si46     Si       0.10312    0.02826    0.60768    1.000
    N47      N        0.01725    0.01190    0.58110    1.000
    N48      N        0.11969    0.04039    0.50906    1.000
    Si49     Si       0.14308    0.02955    0.54460    1.000
    N50      N        0.21864    0.06260    0.51197    1.000
    Si51     Si       0.20700    0.02262    0.50306    1.000
    Si52     Si       0.99822    0.04634    0.67232    1.000
    N53      N        0.02597    0.05655    0.64008    1.000
    N54      N        0.06342    0.05820    0.69986    1.000
    Si55     Si       0.05637    0.02132    0.66765    1.000
    Si56     Si       0.05666    0.00508    0.73468    1.000
    N57      N        0.07072    0.00765    0.62768    1.000
    N58      N        0.23175    0.00935    0.70621    1.000
    Si59     Si       0.22578    0.02295    0.66205    1.000
    N60      N        0.13283    0.02097    0.64005    1.000
    Si61     Si       0.15663    0.05522    0.65413    1.000
    N62      N        0.18251    0.02446    0.67460    1.000
    N63      N        0.18177    0.05203    0.74048    1.000
    Si64     Si       0.18897    0.01476    0.71787    1.000
    N65      N        0.23659    0.04051    0.58343    1.000
    N66      N        0.16065    0.06762    0.55590    1.000
    Si67     Si       0.99276    0.00819    0.54336    1.000
    N68      N        0.11765    0.00697    0.57207    1.000
    N69      N        0.01742    0.00985    0.68496    1.000
    Si70     Si       0.04615    0.04682    0.84468    1.000
    Si71     Si       0.10322    0.05415    0.78224    1.000
    Si72     Si       0.00405    0.03189    0.78660    1.000
    N73      N        0.08812    0.01801    0.76155    1.000
    N74      N        0.01851    0.01629    0.86230    1.000
    N75      N        0.06608    0.01215    0.82361    1.000
    N76      N        0.02825    0.03386    0.74992    1.000
    N77      N        0.01774    0.06281    0.81595    1.000
    N78      N        0.07195    0.06197    0.87517    1.000
    N79      N        0.13335    0.02846    0.80200    1.000
    Si80     Si       0.15585    0.04859    0.83510    1.000
    Si81     Si       0.16958    0.02989    0.77569    1.000
    N82      N        0.18842    0.05269    0.80706    1.000
    N83      N        0.15607    0.02060    0.86902    1.000
    N84      N        0.06007    0.03877    0.94080    1.000
    Si85     Si       0.01903    0.03963    0.94913    1.000
    Si86     Si       0.08827    0.04032    0.90833    1.000
    Si87     Si       0.21106    0.06024    0.98405    1.000
    N88      N        0.10622    0.04326    0.99658    1.000
    N89      N        0.22160    0.04422    0.94387    1.000
    N90      N        0.16757    0.05762    0.97558    1.000
    N91      N        0.22160    0.03575    0.87764    1.000
    Si92     Si       0.08601    0.06325    0.96496    1.000
    N93      N        0.08281    0.09008    0.05399    1.000
    Si94     Si       0.07371    0.10157    0.09432    1.000
    N95      N        0.03264    0.11887    0.09360    1.000
    N96      N        0.14382    0.09068    0.10009    1.000
    N97      N        0.16795    0.11272    0.02889    1.000
    Si98     Si       0.16204    0.08460    0.06113    1.000
    N99      N        0.20249    0.08002    0.07687    1.000
    Si100    Si       0.21180    0.09673    0.11616    1.000
    Si101    Si       0.00445    0.10712    0.12458    1.000
    Si102    Si       0.02686    0.10037    0.20091    1.000
    N103     N        0.02695    0.09160    0.15823    1.000
    N104     N        0.99048    0.12568    0.20937    1.000
    Si105    Si       0.12351    0.07985    0.20089    1.000
    N106     N        0.12114    0.12254    0.20285    1.000
    N107     N        0.07192    0.07939    0.34670    1.000
    Si108    Si       0.09469    0.11562    0.34883    1.000
    N109     N        0.19832    0.09228    0.27181    1.000
    N110     N        0.17247    0.07709    0.35771    1.000
    Si111    Si       0.23323    0.07757    0.28925    1.000
    Si112    Si       0.17042    0.12055    0.34806    1.000
    N113     N        0.23830    0.10386    0.36985    1.000
    N114     N        0.01660    0.10696    0.37104    1.000
    Si115    Si       0.05329    0.08797    0.38913    1.000
    Si116    Si       0.09049    0.11484    0.43427    1.000
    N117     N        0.04728    0.10770    0.43248    1.000
    N118     N        0.09991    0.07551    0.45442    1.000
    N119     N        0.09482    0.11317    0.39223    1.000
    N120     N        0.03861    0.07928    0.49343    1.000
    N121     N        0.21451    0.09165    0.44768    1.000
    Si122    Si       0.17262    0.10286    0.45477    1.000
    N123     N        0.15579    0.09430    0.49347    1.000
    N124     N        0.15862    0.07098    0.42776    1.000
    N125     N        0.13160    0.12516    0.32741    1.000
    Si126    Si       0.11431    0.08126    0.49646    1.000
    N127     N        0.08994    0.10236    0.52937    1.000
    Si128    Si       0.07777    0.09678    0.57135    1.000
    Si129    Si       0.01875    0.07729    0.53080    1.000
    N130     N        0.99840    0.11425    0.53807    1.000
    N131     N        0.04158    0.07310    0.56897    1.000
    N132     N        0.10737    0.06982    0.59720    1.000
    N133     N        0.16327    0.12683    0.73370    1.000
    Si134    Si       0.14566    0.08831    0.58979    1.000
    Si135    Si       0.18464    0.08636    0.52571    1.000
    N136     N        0.23509    0.11105    0.61256    1.000
    N137     N        0.19735    0.10300    0.68559    1.000
    Si138    Si       0.20067    0.11363    0.64133    1.000
    Si139    Si       0.10006    0.07825    0.70875    1.000
    Si140    Si       0.03063    0.06965    0.72596    1.000
    N141     N        0.09781    0.12399    0.70377    1.000
    Si142    Si       0.17173    0.08478    0.71620    1.000
    Si143    Si       0.12027    0.12711    0.74288    1.000
    N144     N        0.13860    0.07112    0.68932    1.000
    N145     N        0.17165    0.08386    0.62522    1.000
    Si146    Si       0.04230    0.09390    0.79664    1.000
    Si147    Si       0.09596    0.09111    0.85189    1.000
    N148     N        0.08128    0.07884    0.81042    1.000
    N149     N        0.03088    0.10159    0.75630    1.000
    N150     N        0.11459    0.08184    0.74982    1.000
    N151     N        0.13765    0.08573    0.84873    1.000
    N152     N        0.22465    0.10295    0.76444    1.000
    Si153    Si       0.22307    0.06953    0.79166    1.000
    N154     N        0.19689    0.12605    0.84690    1.000
    N155     N        0.02189    0.06862    0.98594    1.000
    Si156    Si       0.03697    0.11080    0.98618    1.000
    N157     N        0.07943    0.10432    0.97485    1.000
    Si158    Si       0.23721    0.11269    0.84768    1.000
    N159     N        0.17658    0.08516    0.90677    1.000
    Si160    Si       0.15268    0.08122    0.94222    1.000
    N161     N        0.22360    0.10072    0.98767    1.000
    Si162    Si       0.16582    0.10932    0.87186    1.000
    N163     N        0.15053    0.12365    0.95951    1.000
    Si164    Si       0.21667    0.06525    0.90784    1.000
    N165     N        0.11418    0.06569    0.93089    1.000
    N166     N        0.07177    0.16731    0.06367    1.000
    Si167    Si       0.10359    0.16795    0.09460    1.000
    Si168    Si       0.03193    0.15231    0.06241    1.000
    N169     N        0.01963    0.13840    0.02208    1.000
    N170     N        0.09778    0.13142    0.11619    1.000
    N171     N        0.11190    0.15645    0.00907    1.000
    N172     N        0.14111    0.15414    0.07770    1.000
    Si173    Si       0.14853    0.15257    0.03344    1.000
    N174     N        0.17988    0.17147    0.01094    1.000
    Si175    Si       0.14426    0.13229    0.11637    1.000
    N176     N        0.23655    0.18215    0.09661    1.000
    Si177    Si       0.09097    0.14624    0.22180    1.000
    Si178    Si       0.01508    0.16379    0.21346    1.000
    N179     N        0.05118    0.13704    0.21005    1.000
    N180     N        0.11085    0.18308    0.20842    1.000
    Si181    Si       0.20005    0.16228    0.15881    1.000
    Si182    Si       0.18818    0.17731    0.23624    1.000
    N183     N        0.18885    0.12991    0.13278    1.000
    Si184    Si       0.13830    0.15797    0.18592    1.000
    N185     N        0.17957    0.16234    0.19693    1.000
    N186     N        0.14084    0.16829    0.14418    1.000
    N187     N        0.06943    0.14915    0.33555    1.000
    N188     N        0.09342    0.14381    0.26444    1.000
    Si189    Si       0.05875    0.14808    0.29023    1.000
    Si190    Si       0.02607    0.13701    0.34330    1.000
    N191     N        0.00954    0.17488    0.35794    1.000
    N192     N        0.00426    0.17527    0.25371    1.000
    N193     N        0.02216    0.12895    0.29983    1.000
    Si194    Si       0.12758    0.15213    0.29233    1.000
    N195     N        0.16128    0.15588    0.26663    1.000
    N196     N        0.22193    0.16047    0.25596    1.000
    Si197    Si       0.19650    0.13467    0.27946    1.000
    N198     N        0.20228    0.13360    0.32151    1.000
    N199     N        0.17556    0.15228    0.37724    1.000
    N200     N        0.03617    0.17818    0.42137    1.000
    Si201    Si       0.02472    0.14304    0.44496    1.000
    N202     N        0.10151    0.14060    0.47028    1.000
    N203     N        0.03620    0.15336    0.48567    1.000
    N204     N        0.23826    0.14799    0.42102    1.000
    N205     N        0.16904    0.14470    0.44729    1.000
    Si206    Si       0.19740    0.15939    0.41681    1.000
    Si207    Si       0.13953    0.16378    0.47419    1.000
    N208     N        0.07721    0.17038    0.52735    1.000
    N209     N        0.99849    0.14451    0.60724    1.000
    Si210    Si       0.04090    0.15281    0.61609    1.000
    N211     N        0.07341    0.13015    0.59782    1.000
    Si212    Si       0.11044    0.15228    0.60072    1.000
    Si213    Si       0.07213    0.13376    0.50399    1.000
    N214     N        0.14305    0.16498    0.51946    1.000
    Si215    Si       0.16903    0.15301    0.55169    1.000
    Si216    Si       0.23454    0.14332    0.51691    1.000
    N217     N        0.14470    0.13168    0.58264    1.000
    Si218    Si       0.15604    0.17527    0.65323    1.000
    N219     N        0.00388    0.14163    0.71096    1.000
    Si220    Si       0.01471    0.17065    0.68275    1.000
    N221     N        0.04760    0.15385    0.66030    1.000
    Si222    Si       0.08893    0.15716    0.67675    1.000
    N223     N        0.22095    0.16031    0.72519    1.000
    N224     N        0.11823    0.15990    0.64455    1.000
    N225     N        0.19441    0.15590    0.65666    1.000
    Si226    Si       0.18690    0.14750    0.69980    1.000
    N227     N        0.15699    0.18477    0.69805    1.000
    N228     N        0.19782    0.12716    0.53348    1.000
    Si229    Si       0.07112    0.15883    0.79479    1.000
    Si230    Si       0.04758    0.15728    0.85726    1.000
    N231     N        0.04889    0.17106    0.76069    1.000
    N232     N        0.03945    0.13434    0.81405    1.000
    Si233    Si       0.99761    0.15253    0.81670    1.000
    N234     N        0.08782    0.13256    0.86504    1.000
    Si235    Si       0.01690    0.14387    0.75201    1.000
    N236     N        0.11007    0.14972    0.77761    1.000
    N237     N        0.01241    0.18112    0.84587    1.000
    N238     N        0.20234    0.15305    0.94991    1.000
    Si239    Si       0.11687    0.16476    0.86678    1.000
    N240     N        0.14663    0.17400    0.83552    1.000
    N241     N        0.18478    0.16445    0.78586    1.000
    Si242    Si       0.18928    0.16540    0.82956    1.000
    Si243    Si       0.20259    0.13807    0.75797    1.000
    Si244    Si       0.14155    0.17765    0.79019    1.000
    N245     N        0.03020    0.15135    0.89832    1.000
    N246     N        0.02202    0.14130    0.95965    1.000
    Si247    Si       0.05010    0.16461    0.93439    1.000
    N248     N        0.09297    0.16347    0.94111    1.000
    Si249    Si       0.99379    0.14648    0.92626    1.000
    Si250    Si       0.10794    0.13578    0.97027    1.000
    Si251    Si       0.02241    0.17540    0.99043    1.000
    Si252    Si       0.16417    0.15556    0.93177    1.000
    N253     N        0.14806    0.14389    0.89178    1.000
    Si254    Si       0.18843    0.12902    0.98939    1.000
    N255     N        0.10432    0.21145    0.10755    1.000
    Si256    Si       0.02870    0.22083    0.04846    1.000
    N257     N        0.05026    0.20342    0.01314    1.000
    Si258    Si       0.06719    0.23821    0.11591    1.000
    N259     N        0.00774    0.18699    0.06955    1.000
    N260     N        0.05568    0.24138    0.07555    1.000
    Si261    Si       0.08843    0.18640    0.02830    1.000
    N262     N        0.11958    0.21454    0.03900    1.000
    Si263    Si       0.12630    0.23406    0.07445    1.000
    N264     N        0.16484    0.22092    0.09090    1.000
    N265     N        0.22435    0.22331    0.04733    1.000
    Si266    Si       0.20679    0.21247    0.09973    1.000
    Si267    Si       0.20482    0.20852    0.00799    1.000
    N268     N        0.04050    0.21178    0.13796    1.000
    Si269    Si       0.03515    0.22235    0.17895    1.000
    N270     N        0.04907    0.20819    0.21839    1.000
    Si271    Si       0.09120    0.21985    0.21884    1.000
    N272     N        0.00184    0.19175    0.18222    1.000
    Si273    Si       0.00437    0.18530    0.13682    1.000
    N274     N        0.18264    0.22047    0.23452    1.000
    Si275    Si       0.14571    0.20784    0.12974    1.000
    N276     N        0.19344    0.20228    0.14495    1.000
    Si277    Si       0.22100    0.24111    0.22266    1.000
    Si278    Si       0.19246    0.24502    0.15202    1.000
    N279     N        0.06352    0.21897    0.35770    1.000
    Si280    Si       0.03213    0.20936    0.25979    1.000
    N281     N        0.99915    0.23530    0.27189    1.000
    Si282    Si       0.07727    0.19193    0.32759    1.000
    N283     N        0.05511    0.19157    0.29152    1.000
    N284     N        0.98800    0.21156    0.46587    1.000
    N285     N        0.11864    0.19111    0.31305    1.000
    N286     N        0.14959    0.22847    0.35910    1.000
    N287     N        0.20838    0.20968    0.34194    1.000
    Si288    Si       0.13131    0.23101    0.31861    1.000
    Si289    Si       0.17871    0.19785    0.37161    1.000
    Si290    Si       0.02852    0.21289    0.44596    1.000
    N291     N        0.05936    0.21641    0.47469    1.000
    Si292    Si       0.10140    0.22871    0.47847    1.000
    Si293    Si       0.03315    0.20069    0.38454    1.000
    N294     N        0.02671    0.23811    0.40893    1.000
    N295     N        0.19072    0.20248    0.41335    1.000
    Si296    Si       0.17047    0.22607    0.44333    1.000
    N297     N        0.13565    0.20622    0.46109    1.000
    Si298    Si       0.24003    0.21702    0.47277    1.000
    N299     N        0.20505    0.24181    0.46804    1.000
    N300     N        0.01595    0.20272    0.53582    1.000
    Si301    Si       0.08071    0.21902    0.60045    1.000
    Si302    Si       0.00865    0.20340    0.58095    1.000
    N303     N        0.04622    0.19212    0.60009    1.000
    N304     N        0.11027    0.23217    0.52069    1.000
    Si305    Si       0.04247    0.18988    0.50731    1.000
    Si306    Si       0.11275    0.19113    0.53655    1.000
    N307     N        0.00289    0.24336    0.59888    1.000
    N308     N        0.11444    0.19331    0.58229    1.000
    Si309    Si       0.15302    0.21561    0.58783    1.000
    Si310    Si       0.21865    0.21009    0.58050    1.000
    N311     N        0.18223    0.19197    0.56681    1.000
    N312     N        0.23699    0.18330    0.61022    1.000
    N313     N        0.09157    0.19131    0.70338    1.000
    N314     N        0.02624    0.20562    0.70635    1.000
    Si315    Si       0.06063    0.20006    0.73153    1.000
    N316     N        0.09325    0.23723    0.63654    1.000
    Si317    Si       0.99826    0.23932    0.70780    1.000
    Si318    Si       0.22713    0.18655    0.65277    1.000
    Si319    Si       0.12977    0.21158    0.71674    1.000
    N320     N        0.16549    0.20898    0.62917    1.000
    N321     N        0.21847    0.22853    0.66481    1.000
    Si322    Si       0.18915    0.24432    0.63633    1.000
    N323     N        0.23638    0.18582    0.50268    1.000
    Si324    Si       0.08387    0.22049    0.84974    1.000
    Si325    Si       0.00702    0.22359    0.85114    1.000
    N326     N        0.07220    0.23739    0.75363    1.000
    N327     N        0.15293    0.19746    0.93327    1.000
    N328     N        0.04578    0.24092    0.85711    1.000
    N329     N        0.21626    0.19730    0.83862    1.000
    N330     N        0.13354    0.21236    0.76286    1.000
    N331     N        0.03570    0.20097    0.95167    1.000
    Si332    Si       0.05706    0.22891    0.97696    1.000
    N333     N        0.10362    0.20299    0.88489    1.000
    N334     N        0.09500    0.23028    0.95826    1.000
    Si335    Si       0.10971    0.20249    0.92959    1.000
    N336     N        0.18659    0.23579    0.97814    1.000
    N337     N        0.21445    0.24030    0.91186    1.000
    Si338    Si       0.17766    0.23310    0.93527    1.000
    N339     N        0.07845    0.18301    0.83009    1.000
    Si340    Si       0.00804    0.28447    0.01374    1.000
    N341     N        0.00690    0.29989    0.10258    1.000
    N342     N        0.99670    0.24641    0.03315    1.000
    N343     N        0.12084    0.27745    0.06768    1.000
    Si344    Si       0.14282    0.29472    0.03602    1.000
    N345     N        0.18411    0.27659    0.03596    1.000
    Si346    Si       0.22479    0.26585    0.04233    1.000
    N347     N        0.21978    0.25121    0.11595    1.000
    N348     N        0.08999    0.27324    0.12802    1.000
    N349     N        0.08338    0.25297    0.19087    1.000
    Si350    Si       0.05092    0.28196    0.20178    1.000
    N351     N        0.01703    0.26147    0.18291    1.000
    Si352    Si       0.11475    0.27008    0.16455    1.000
    Si353    Si       0.24101    0.29769    0.18495    1.000
    N354     N        0.14765    0.24586    0.15406    1.000
    N355     N        0.16772    0.28752    0.23865    1.000
    N356     N        0.21464    0.26097    0.18489    1.000
    N357     N        0.13510    0.28058    0.99539    1.000
    Si358    Si       0.07311    0.26223    0.34974    1.000
    Si359    Si       0.08435    0.27659    0.27140    1.000
    N360     N        0.03809    0.28686    0.35710    1.000
    Si361    Si       0.00694    0.27511    0.25643    1.000
    N362     N        0.09446    0.25482    0.31266    1.000
    N363     N        0.99525    0.29522    0.29501    1.000
    N364     N        0.23822    0.26538    0.31806    1.000
    N365     N        0.18204    0.28386    0.35803    1.000
    Si366    Si       0.19653    0.25302    0.32923    1.000
    Si367    Si       0.15560    0.24939    0.25588    1.000
    N368     N        0.16581    0.24872    0.29782    1.000
    N369     N        0.10476    0.27818    0.37544    1.000
    N370     N        0.09747    0.26768    0.46126    1.000
    Si371    Si       0.05467    0.28218    0.45922    1.000
    N372     N        0.01314    0.27074    0.47250    1.000
    Si373    Si       0.02075    0.27769    0.39637    1.000
    N374     N        0.15449    0.26137    0.42205    1.000
    Si375    Si       0.13386    0.28904    0.44802    1.000
    Si376    Si       0.14772    0.26651    0.37935    1.000
    Si377    Si       0.19556    0.28109    0.48687    1.000
    N378     N        0.11267    0.24252    0.25092    1.000
    N379     N        0.04883    0.27315    0.24584    1.000
    N380     N        0.23025    0.27169    0.25229    1.000
    Si381    Si       0.03082    0.26900    0.57810    1.000
    Si382    Si       0.10516    0.26310    0.55182    1.000
    N383     N        0.01784    0.29291    0.54498    1.000
    N384     N        0.07010    0.24890    0.57182    1.000
    N385     N        0.10649    0.30125    0.53144    1.000
    Si386    Si       0.00907    0.30411    0.50347    1.000
    N387     N        0.14171    0.25709    0.57498    1.000
    Si388    Si       0.18077    0.27574    0.57109    1.000
    N389     N        0.18632    0.28434    0.52881    1.000
    N390     N        0.20212    0.24694    0.59446    1.000
    N391     N        0.00236    0.26594    0.67233    1.000
    N392     N        0.05427    0.29312    0.71648    1.000
    N393     N        0.00486    0.26403    0.74157    1.000
    N394     N        0.18617    0.28468    0.73200    1.000
    N395     N        0.22186    0.29271    0.64661    1.000
    Si396    Si       0.23951    0.26461    0.67638    1.000
    Si397    Si       0.14453    0.28513    0.72578    1.000
    Si398    Si       0.11979    0.26267    0.65988    1.000
    N399     N        0.15886    0.27516    0.64454    1.000
    N400     N        0.12884    0.25158    0.70018    1.000
    N401     N        0.03940    0.30392    0.60232    1.000
    Si402    Si       0.02115    0.30283    0.69047    1.000
    Si403    Si       0.06120    0.27527    0.83058    1.000
    N404     N        0.05346    0.29279    0.79029    1.000
    Si405    Si       0.04593    0.27094    0.75243    1.000
    N406     N        0.09436    0.25005    0.81836    1.000
    N407     N        0.99499    0.29818    0.85970    1.000
    Si408    Si       0.10947    0.24541    0.77632    1.000
    N409     N        0.13215    0.28177    0.76777    1.000
    N410     N        0.22520    0.26311    0.84173    1.000
    Si411    Si       0.21559    0.29770    0.81662    1.000
    Si412    Si       0.04220    0.29538    0.95161    1.000
    N413     N        0.01950    0.28652    0.91659    1.000
    N414     N        0.03524    0.26618    0.98231    1.000
    N415     N        0.08474    0.29545    0.94475    1.000
    N416     N        0.99092    0.24420    0.81752    1.000
    Si417    Si       0.11557    0.26686    0.95960    1.000
    Si418    Si       0.22039    0.27178    0.88320    1.000
    Si419    Si       0.17876    0.27680    0.99150    1.000
    N420     N        0.14927    0.26743    0.93213    1.000
    Si421    Si       0.15342    0.30309    0.90926    1.000
    N422     N        0.19182    0.30406    0.88827    1.000
    N423     N        0.07366    0.33160    0.09860    1.000
    Si424    Si       0.05356    0.34115    0.00834    1.000
    Si425    Si       0.03358    0.32274    0.07948    1.000
    N426     N        0.03303    0.31180    0.03601    1.000
    Si427    Si       0.10524    0.30230    0.09963    1.000
    N428     N        0.14579    0.33844    0.04118    1.000
    N429     N        0.13932    0.32982    0.10849    1.000
    N430     N        0.20532    0.33603    0.08690    1.000
    Si431    Si       0.16252    0.34943    0.07804    1.000
    N432     N        0.04560    0.32477    0.19971    1.000
    N433     N        0.22008    0.32685    0.21185    1.000
    N434     N        0.15492    0.35531    0.21654    1.000
    Si435    Si       0.21225    0.33864    0.12873    1.000
    Si436    Si       0.13903    0.34216    0.15172    1.000
    Si437    Si       0.19207    0.35697    0.19637    1.000
    N438     N        0.18011    0.34871    0.15563    1.000
    Si439    Si       0.13644    0.31476    0.22132    1.000
    N440     N        0.12832    0.30849    0.17826    1.000
    N441     N        0.09666    0.34159    0.99665    1.000
    Si442    Si       0.08728    0.33885    0.27844    1.000
    N443     N        0.00479    0.35013    0.32471    1.000
    N444     N        0.06242    0.31066    0.29941    1.000
    Si445    Si       0.02642    0.31161    0.32325    1.000
    N446     N        0.10652    0.31096    0.25123    1.000
    N447     N        0.11806    0.35140    0.30634    1.000
    N448     N        0.20223    0.33565    0.27938    1.000
    Si449    Si       0.20756    0.32004    0.37019    1.000
    N450     N        0.19401    0.32722    0.41223    1.000
    N451     N        0.08335    0.34916    0.37552    1.000
    Si452    Si       0.08763    0.31315    0.39827    1.000
    N453     N        0.04862    0.32088    0.48552    1.000
    Si454    Si       0.04239    0.34131    0.44721    1.000
    N455     N        0.05035    0.30332    0.42283    1.000
    Si456    Si       0.15403    0.34831    0.41408    1.000
    N457     N        0.23300    0.30986    0.47709    1.000
    N458     N        0.12201    0.32300    0.42440    1.000
    Si459    Si       0.22434    0.33927    0.44163    1.000
    N460     N        0.98765    0.36463    0.26798    1.000
    N461     N        0.00529    0.36161    0.44517    1.000
    N462     N        0.14988    0.36422    0.37310    1.000
    N463     N        0.15869    0.30597    0.47753    1.000
    Si464    Si       0.20541    0.30711    0.24685    1.000
    Si465    Si       0.02559    0.32934    0.56887    1.000
    Si466    Si       0.07877    0.33214    0.51422    1.000
    N467     N        0.05645    0.35101    0.54623    1.000
    N468     N        0.07537    0.35757    0.61171    1.000
    N469     N        0.99154    0.35203    0.58056    1.000
    N470     N        0.10939    0.35967    0.49912    1.000
    N471     N        0.98986    0.32286    0.71407    1.000
    Si472    Si       0.14853    0.31105    0.52100    1.000
    Si473    Si       0.19656    0.34948    0.56978    1.000
    N474     N        0.16013    0.34864    0.54285    1.000
    N475     N        0.18919    0.31314    0.59111    1.000
    N476     N        0.22926    0.35233    0.54109    1.000
    Si477    Si       0.23507    0.35100    0.49901    1.000
    Si478    Si       0.06777    0.31902    0.63062    1.000
    N479     N        0.04231    0.33078    0.66367    1.000
    Si480    Si       0.18413    0.31036    0.63468    1.000
    Si481    Si       0.22266    0.30632    0.74185    1.000
    Si482    Si       0.12529    0.33534    0.66717    1.000
    N483     N        0.23363    0.34894    0.73868    1.000
    N484     N        0.13525    0.32364    0.70846    1.000
    N485     N        0.16309    0.34696    0.64919    1.000
    Si486    Si       0.12899    0.35956    0.73218    1.000
    Si487    Si       0.98960    0.36623    0.71839    1.000
    N488     N        0.10261    0.30349    0.65043    1.000
    Si489    Si       0.10092    0.33417    0.85162    1.000
    Si490    Si       0.07340    0.33166    0.78682    1.000
    N491     N        0.06440    0.31040    0.85806    1.000
    N492     N        0.09025    0.35217    0.75118    1.000
    N493     N        0.10886    0.32746    0.81025    1.000
    Si494    Si       0.14500    0.31900    0.78889    1.000
    Si495    Si       0.17661    0.33332    0.85915    1.000
    N496     N        0.16169    0.35069    0.76289    1.000
    N497     N        0.17549    0.31547    0.82044    1.000
    N498     N        0.01148    0.34649    0.89986    1.000
    Si499    Si       0.09921    0.33533    0.95382    1.000
    N500     N        0.03520    0.33711    0.96911    1.000
    Si501    Si       0.02881    0.31207    0.88146    1.000
    N502     N        0.23945    0.33157    0.83130    1.000
    N503     N        0.14072    0.33161    0.94055    1.000
    Si504    Si       0.17467    0.34908    0.96097    1.000
    Si505    Si       0.23682    0.31459    0.98535    1.000
    N506     N        0.13533    0.32825    0.87740    1.000
    N507     N        0.19432    0.31320    0.97676    1.000
    N508     N        0.07696    0.40361    0.09282    1.000
    Si509    Si       0.07243    0.40893    0.04792    1.000
    N510     N        0.04665    0.37615    0.03190    1.000
    Si511    Si       0.00410    0.38420    0.05178    1.000
    Si512    Si       0.07499    0.37003    0.11980    1.000
    N513     N        0.01581    0.36278    0.08675    1.000
    N514     N        0.11530    0.39925    0.03764    1.000
    N515     N        0.16641    0.39270    0.08226    1.000
    Si516    Si       0.20370    0.40399    0.09938    1.000
    Si517    Si       0.12897    0.36454    0.01212    1.000
    Si518    Si       0.00846    0.37947    0.12629    1.000
    N519     N        0.07962    0.39683    0.20647    1.000
    N520     N        0.00834    0.39169    0.20217    1.000
    Si521    Si       0.10458    0.41038    0.17387    1.000
    Si522    Si       0.04558    0.36826    0.19239    1.000
    N523     N        0.04501    0.37360    0.14881    1.000
    N524     N        0.10948    0.37458    0.14934    1.000
    N525     N        0.14585    0.41821    0.19000    1.000
    N526     N        0.21322    0.39279    0.19333    1.000
    Si527    Si       0.14897    0.39710    0.22831    1.000
    N528     N        0.23463    0.37884    0.12559    1.000
    Si529    Si       0.22783    0.40850    0.15630    1.000
    N530     N        0.05981    0.37277    0.27294    1.000
    Si531    Si       0.02088    0.37743    0.29218    1.000
    N532     N        0.10626    0.40373    0.33651    1.000
    N533     N        0.02161    0.41878    0.31124    1.000
    Si534    Si       0.11359    0.36243    0.34749    1.000
    N535     N        0.14947    0.38138    0.44216    1.000
    N536     N        0.11990    0.40410    0.26000    1.000
    Si537    Si       0.19936    0.37831    0.28491    1.000
    N538     N        0.17047    0.39268    0.31493    1.000
    Si539    Si       0.18081    0.38799    0.35536    1.000
    Si540    Si       0.12883    0.39514    0.30038    1.000
    N541     N        0.18521    0.40257    0.25182    1.000
    N542     N        0.21153    0.37320    0.46871    1.000
    N543     N        0.07313    0.36983    0.43998    1.000
    Si544    Si       0.10886    0.38097    0.46143    1.000
    Si545    Si       0.07499    0.38522    0.39746    1.000
    N546     N        0.03505    0.39538    0.38417    1.000
    Si547    Si       0.00260    0.38627    0.41101    1.000
    Si548    Si       0.17846    0.40126    0.46720    1.000
    N549     N        0.21667    0.36364    0.35811    1.000
    Si550    Si       0.07738    0.40651    0.24866    1.000
    Si551    Si       0.07578    0.37726    0.57329    1.000
    N552     N        0.05107    0.40981    0.59025    1.000
    N553     N        0.10987    0.39747    0.56030    1.000
    N554     N        0.15981    0.40657    0.50669    1.000
    N555     N        0.19722    0.38148    0.59978    1.000
    Si556    Si       0.13373    0.38065    0.52980    1.000
    Si557    Si       0.20668    0.42177    0.58451    1.000
    N558     N        0.10707    0.41895    0.62595    1.000
    Si559    Si       0.07063    0.39721    0.62818    1.000
    N560     N        0.04412    0.40095    0.66107    1.000
    N561     N        0.03430    0.37477    0.71913    1.000
    N562     N        0.10081    0.37104    0.67363    1.000
    Si563    Si       0.05748    0.36499    0.68327    1.000
    Si564    Si       0.01203    0.41744    0.68585    1.000
    N565     N        0.16490    0.41653    0.65739    1.000
    N566     N        0.21019    0.40313    0.72260    1.000
    N567     N        0.22683    0.37692    0.65955    1.000
    Si568    Si       0.12179    0.41408    0.66872    1.000
    Si569    Si       0.23762    0.37753    0.70134    1.000
    N570     N        0.13333    0.40123    0.72051    1.000
    Si571    Si       0.18682    0.38114    0.64448    1.000
    N572     N        0.10017    0.37924    0.86275    1.000
    Si573    Si       0.02558    0.39091    0.82202    1.000
    N574     N        0.03763    0.41118    0.85889    1.000
    Si575    Si       0.05888    0.38135    0.75484    1.000
    Si576    Si       0.08011    0.41631    0.85925    1.000
    Si577    Si       0.99528    0.41529    0.76291    1.000
    N578     N        0.04964    0.36760    0.79535    1.000
    N579     N        0.21000    0.39146    0.79180    1.000
    Si580    Si       0.22421    0.37361    0.82918    1.000
    N581     N        0.19555    0.37319    0.86376    1.000
    Si582    Si       0.19937    0.37203    0.75526    1.000
    Si583    Si       0.07623    0.40931    0.93192    1.000
    N584     N        0.03220    0.40350    0.94030    1.000
    N585     N        0.08921    0.36771    0.92601    1.000
    Si586    Si       0.01583    0.36316    0.93875    1.000
    Si587    Si       0.14807    0.41198    0.95352    1.000
    Si588    Si       0.12307    0.36636    0.90002    1.000
    N589     N        0.15124    0.39632    0.91393    1.000
    N590     N        0.20378    0.36888    0.93795    1.000
    N591     N        0.15595    0.38041    0.98350    1.000
    Si592    Si       0.19757    0.39669    0.90167    1.000
    N593     N        0.99166    0.36501    0.83262    1.000
    N594     N        0.06445    0.44147    0.02001    1.000
    Si595    Si       0.02386    0.45343    0.02758    1.000
    Si596    Si       0.08583    0.44249    0.10623    1.000
    N597     N        0.04796    0.46882    0.10721    1.000
    Si598    Si       0.00840    0.44860    0.09870    1.000
    N599     N        0.01138    0.42695    0.06048    1.000
    N600     N        0.12204    0.45217    0.08161    1.000
    N601     N        0.16950    0.44462    0.02981    1.000
    Si602    Si       0.21206    0.44963    0.04089    1.000
    Si603    Si       0.14510    0.42270    0.05910    1.000
    N604     N        0.22708    0.42212    0.06890    1.000
    N605     N        0.23445    0.45070    0.00275    1.000
    N606     N        0.09565    0.44535    0.14880    1.000
    N607     N        0.02791    0.45833    0.18136    1.000
    Si608    Si       0.00222    0.42502    0.17613    1.000
    N609     N        0.00096    0.42265    0.13254    1.000
    N610     N        0.20398    0.45906    0.19811    1.000
    Si611    Si       0.21234    0.42374    0.22241    1.000
    Si612    Si       0.17116    0.44856    0.17044    1.000
    N613     N        0.19365    0.42816    0.13598    1.000
    N614     N        0.00054    0.45310    0.24659    1.000
    Si615    Si       0.16028    0.46958    0.99472    1.000
    Si616    Si       0.01752    0.45576    0.28784    1.000
    Si617    Si       0.10617    0.44036    0.36313    1.000
    N618     N        0.06548    0.44482    0.26269    1.000
    N619     N        0.01992    0.46596    0.36827    1.000
    Si620    Si       0.02054    0.42372    0.35426    1.000
    Si621    Si       0.14011    0.45264    0.47784    1.000
    Si622    Si       0.22937    0.44796    0.37464    1.000
    N623     N        0.13858    0.46121    0.34115    1.000
    Si624    Si       0.17607    0.46735    0.35943    1.000
    N625     N        0.19112    0.42755    0.37181    1.000
    N626     N        0.21418    0.48079    0.34478    1.000
    N627     N        0.99480    0.45219    0.49268    1.000
    Si628    Si       0.01002    0.45493    0.44914    1.000
    Si629    Si       0.09107    0.44810    0.43844    1.000
    N630     N        0.05020    0.45952    0.43274    1.000
    N631     N        0.09899    0.42211    0.40228    1.000
    N632     N        0.10575    0.42482    0.47133    1.000
    N633     N        0.17529    0.44308    0.45487    1.000
    Si634    Si       0.19729    0.46854    0.42911    1.000
    N635     N        0.23619    0.45396    0.41677    1.000
    Si636    Si       0.02660    0.43959    0.57108    1.000
    N637     N        0.01241    0.46323    0.60546    1.000
    N638     N        0.04561    0.46676    0.54337    1.000
    N639     N        0.11048    0.47306    0.58455    1.000
    Si640    Si       0.21505    0.44678    0.71936    1.000
    Si641    Si       0.12055    0.42936    0.58630    1.000
    N642     N        0.16374    0.43213    0.57899    1.000
    Si643    Si       0.17089    0.43728    0.53379    1.000
    N644     N        0.15076    0.47028    0.51677    1.000
    N645     N        0.21351    0.45187    0.61645    1.000
    N646     N        0.21214    0.43039    0.54001    1.000
    Si647    Si       0.10682    0.43566    0.73037    1.000
    N648     N        0.00826    0.43383    0.72619    1.000
    N649     N        0.01297    0.46127    0.67174    1.000
    N650     N        0.10147    0.44703    0.68838    1.000
    Si651    Si       0.01952    0.47401    0.71310    1.000
    N652     N        0.20217    0.47094    0.68359    1.000
    Si653    Si       0.18372    0.45575    0.64703    1.000
    N654     N        0.09258    0.43783    0.82363    1.000
    Si655    Si       0.06372    0.44569    0.79027    1.000
    N656     N        0.02229    0.42955    0.79630    1.000
    N657     N        0.07660    0.42136    0.75733    1.000
    Si658    Si       0.13141    0.46182    0.82044    1.000
    Si659    Si       0.20022    0.43473    0.79071    1.000
    N660     N        0.16975    0.44085    0.82057    1.000
    Si661    Si       0.17825    0.46439    0.86023    1.000
    N662     N        0.18879    0.45719    0.75394    1.000
    N663     N        0.13453    0.47087    0.86352    1.000
    N664     N        0.23793    0.45398    0.80413    1.000
    N665     N        0.10588    0.42109    0.96319    1.000
    N666     N        0.05761    0.46664    0.95483    1.000
    N667     N        0.08577    0.43604    0.89762    1.000
    N668     N        0.00310    0.45680    0.91420    1.000
    Si669    Si       0.02100    0.44533    0.95095    1.000
    Si670    Si       0.08864    0.45334    0.98500    1.000
    N671     N        0.00154    0.44660    0.99061    1.000
    Si672    Si       0.09727    0.47651    0.88576    1.000
    Si673    Si       0.00392    0.42649    0.88152    1.000
    N674     N        0.23056    0.48191    0.93858    1.000
    Si675    Si       0.19006    0.46958    0.92610    1.000
    N676     N        0.16780    0.44911    0.95614    1.000
    N677     N        0.19613    0.44192    0.89182    1.000
    N678     N        0.11801    0.47279    0.74892    1.000
    N679     N        0.08683    0.50495    0.05303    1.000
    Si680    Si       0.09636    0.51779    0.01171    1.000
    Si681    Si       0.05259    0.50076    0.07592    1.000
    N682     N        0.01994    0.49013    0.04870    1.000
    N683     N        0.13063    0.52135    0.22904    1.000
    N684     N        0.11946    0.51386    0.11607    1.000
    N685     N        0.15458    0.51757    0.05532    1.000
    Si686    Si       0.19519    0.52110    0.07237    1.000
    Si687    Si       0.12395    0.49692    0.07427    1.000
    N688     N        0.21858    0.48602    0.06210    1.000
    N689     N        0.19318    0.51986    0.11622    1.000
    Si690    Si       0.02409    0.47926    0.22159    1.000
    N691     N        0.07611    0.50524    0.17170    1.000
    N692     N        0.01047    0.52011    0.14688    1.000
    N693     N        0.05871    0.50175    0.23577    1.000
    Si694    Si       0.04163    0.48689    0.15040    1.000
    Si695    Si       0.07433    0.53263    0.20690    1.000
    Si696    Si       0.10917    0.48506    0.15272    1.000
    N697     N        0.14998    0.48505    0.16289    1.000
    Si698    Si       0.22342    0.49793    0.19828    1.000
    Si699    Si       0.15722    0.51985    0.13991    1.000
    N700     N        0.23619    0.52304    0.16245    1.000
    N701     N        0.19869    0.52637    0.22129    1.000
    N702     N        0.03791    0.49502    0.29775    1.000
    N703     N        0.10647    0.50000    0.29537    1.000
    Si704    Si       0.07310    0.48587    0.27404    1.000
    Si705    Si       0.01623    0.53133    0.30415    1.000
    Si706    Si       0.11444    0.50130    0.34031    1.000
    Si707    Si       0.13341    0.52964    0.27213    1.000
    N708     N        0.15326    0.52307    0.34867    1.000
    Si709    Si       0.23739    0.50763    0.32161    1.000
    N710     N        0.23650    0.51375    0.27722    1.000
    N711     N        0.98971    0.52940    0.33882    1.000
    N712     N        0.05246    0.52068    0.41093    1.000
    Si713    Si       0.02787    0.52350    0.44592    1.000
    N714     N        0.03798    0.50717    0.48501    1.000
    N715     N        0.99335    0.49651    0.44163    1.000
    N716     N        0.11582    0.48278    0.45525    1.000
    Si717    Si       0.05150    0.48061    0.39421    1.000
    N718     N        0.20904    0.50608    0.45159    1.000
    Si719    Si       0.23976    0.50665    0.48137    1.000
    N720     N        0.15069    0.53128    0.48916    1.000
    Si721    Si       0.15602    0.52430    0.39150    1.000
    N722     N        0.17331    0.48610    0.39959    1.000
    Si723    Si       0.12111    0.52619    0.45432    1.000
    N724     N        0.12219    0.53568    0.41230    1.000
    N725     N        0.08625    0.47891    0.36714    1.000
    N726     N        0.09727    0.50957    0.52735    1.000
    N727     N        0.05739    0.52215    0.58462    1.000
    Si728    Si       0.07792    0.49142    0.56188    1.000
    N729     N        0.99648    0.51265    0.54223    1.000
    Si730    Si       0.01616    0.48367    0.51484    1.000
    Si731    Si       0.07016    0.53073    0.50207    1.000
    Si732    Si       0.07545    0.53611    0.62162    1.000
    Si733    Si       0.14124    0.51029    0.52506    1.000
    N734     N        0.22029    0.52301    0.51751    1.000
    N735     N        0.15284    0.52754    0.56397    1.000
    Si736    Si       0.13930    0.50356    0.59893    1.000
    N737     N        0.16395    0.52647    0.73897    1.000
    N738     N        0.06584    0.49925    0.64769    1.000
    N739     N        0.99744    0.52063    0.64088    1.000
    Si740    Si       0.02543    0.48545    0.63738    1.000
    Si741    Si       0.08623    0.48795    0.68449    1.000
    N742     N        0.99246    0.50513    0.72712    1.000
    N743     N        0.05994    0.48692    0.71800    1.000
    Si744    Si       0.14495    0.52654    0.65446    1.000
    Si745    Si       0.21470    0.51578    0.67662    1.000
    N746     N        0.11593    0.51855    0.68633    1.000
    N747     N        0.23322    0.51972    0.71614    1.000
    N748     N        0.15915    0.49042    0.63435    1.000
    Si749    Si       0.06744    0.51753    0.82600    1.000
    N750     N        0.06344    0.49018    0.79025    1.000
    N751     N        0.06620    0.49582    0.86217    1.000
    Si752    Si       0.08339    0.49784    0.75203    1.000
    Si753    Si       0.99284    0.52254    0.76614    1.000
    N754     N        0.02931    0.53911    0.83711    1.000
    N755     N        0.20504    0.49801    0.84745    1.000
    Si756    Si       0.18400    0.51992    0.81300    1.000
    N757     N        0.15099    0.49745    0.80007    1.000
    Si758    Si       0.15719    0.48578    0.75753    1.000
    N759     N        0.98780    0.51449    0.87678    1.000
    Si760    Si       0.03012    0.52213    0.87713    1.000
    N761     N        0.06370    0.52614    0.98280    1.000
    Si762    Si       0.06649    0.50842    0.94232    1.000
    N763     N        0.10419    0.50311    0.92190    1.000
    N764     N        0.04656    0.53673    0.91440    1.000
    N765     N        0.11907    0.48502    0.99541    1.000
    Si766    Si       0.13841    0.52874    0.91934    1.000
    N767     N        0.18866    0.50364    0.98864    1.000
    Si768    Si       0.19872    0.52964    0.87861    1.000
    Si769    Si       0.22888    0.48865    0.97993    1.000
    N770     N        0.17286    0.50689    0.90875    1.000
    N771     N        0.98764    0.49698    0.79925    1.000
    N772     N        0.04585    0.58402    0.02351    1.000
    Si773    Si       0.09329    0.54950    0.10318    1.000
    Si774    Si       0.01370    0.54682    0.11361    1.000
    Si775    Si       0.08714    0.59020    0.04087    1.000
    N776     N        0.99202    0.53666    0.01190    1.000
    N777     N        0.11159    0.56059    0.01404    1.000
    N778     N        0.11481    0.57306    0.07305    1.000
    Si779    Si       0.20914    0.59040    0.02930    1.000
    N780     N        0.18730    0.56754    0.07323    1.000
    Si781    Si       0.14775    0.56167    0.04665    1.000
    N782     N        0.17364    0.57175    0.01211    1.000
    N783     N        0.01373    0.58477    0.13611    1.000
    N784     N        0.09609    0.57552    0.20642    1.000
    N785     N        0.03698    0.55759    0.19989    1.000
    N786     N        0.08649    0.57366    0.13919    1.000
    Si787    Si       0.05562    0.59568    0.20634    1.000
    N788     N        0.22733    0.58523    0.13035    1.000
    N789     N        0.16005    0.58260    0.22767    1.000
    Si790    Si       0.11831    0.58413    0.16724    1.000
    Si791    Si       0.16245    0.54167    0.20873    1.000
    N792     N        0.14946    0.55305    0.16817    1.000
    Si793    Si       0.11836    0.58920    0.24175    1.000
    Si794    Si       0.22879    0.54202    0.12596    1.000
    N795     N        0.05173    0.53789    0.09786    1.000
    Si796    Si       0.00138    0.53928    0.18611    1.000
    Si797    Si       0.08789    0.56857    0.31649    1.000
    N798     N        0.04627    0.56328    0.30509    1.000
    Si799    Si       0.02315    0.58996    0.27758    1.000
    N800     N        0.09101    0.54089    0.34929    1.000
    N801     N        0.99294    0.55852    0.27363    1.000
    N802     N        0.11106    0.56699    0.27792    1.000
    Si803    Si       0.18182    0.54806    0.32926    1.000
    N804     N        0.22149    0.58376    0.25474    1.000
    N805     N        0.17228    0.59351    0.34115    1.000
    N806     N        0.22474    0.54836    0.33756    1.000
    Si807    Si       0.20736    0.54210    0.26089    1.000
    Si808    Si       0.08450    0.54462    0.39128    1.000
    N809     N        0.08677    0.55023    0.46740    1.000
    N810     N        0.07247    0.58468    0.40777    1.000
    Si811    Si       0.06189    0.58133    0.44993    1.000
    N812     N        0.01923    0.56637    0.45138    1.000
    N813     N        0.20157    0.57197    0.45981    1.000
    Si814    Si       0.19118    0.54920    0.49421    1.000
    N815     N        0.18355    0.55660    0.39567    1.000
    Si816    Si       0.20778    0.54309    0.42858    1.000
    Si817    Si       0.19060    0.59524    0.38076    1.000
    N818     N        0.17260    0.53774    0.28708    1.000
    N819     N        0.05403    0.55940    0.52933    1.000
    N820     N        0.00496    0.57634    0.56956    1.000
    Si821    Si       0.07966    0.58996    0.55099    1.000
    N822     N        0.08796    0.58875    0.59274    1.000
    Si823    Si       0.02590    0.54039    0.55788    1.000
    N824     N        0.18943    0.58086    0.52698    1.000
    Si825    Si       0.18691    0.55757    0.56541    1.000
    Si826    Si       0.12838    0.57228    0.58454    1.000
    N827     N        0.16981    0.58627    0.59460    1.000
    N828     N        0.12279    0.59065    0.54277    1.000
    N829     N        0.22210    0.53904    0.58086    1.000
    Si830    Si       0.01044    0.55927    0.65192    1.000
    N831     N        0.00372    0.56580    0.69507    1.000
    N832     N        0.05126    0.56891    0.63975    1.000
    N833     N        0.05998    0.59612    0.71697    1.000
    N834     N        0.13073    0.58259    0.70498    1.000
    N835     N        0.18160    0.54267    0.66941    1.000
    Si836    Si       0.17231    0.58068    0.68979    1.000
    N837     N        0.20149    0.57746    0.72170    1.000
    Si838    Si       0.12769    0.54133    0.72180    1.000
    N839     N        0.11958    0.53775    0.61963    1.000
    Si840    Si       0.20535    0.53978    0.74125    1.000
    N841     N        0.09158    0.54017    0.74746    1.000
    N842     N        0.02138    0.55640    0.76474    1.000
    Si843    Si       0.01073    0.58312    0.83378    1.000
    N844     N        0.09760    0.54772    0.83055    1.000
    Si845    Si       0.06036    0.57038    0.75247    1.000
    Si846    Si       0.08447    0.58856    0.82113    1.000
    N847     N        0.21028    0.53813    0.78394    1.000
    Si848    Si       0.13282    0.56597    0.85057    1.000
    N849     N        0.17224    0.55044    0.84310    1.000
    Si850    Si       0.23060    0.57077    0.80119    1.000
    N851     N        0.24259    0.57322    0.84207    1.000
    Si852    Si       0.05251    0.57527    0.93330    1.000
    N853     N        0.01826    0.57251    0.96088    1.000
    N854     N        0.08637    0.59137    0.95614    1.000
    Si855    Si       0.03122    0.55244    0.99677    1.000
    N856     N        0.19769    0.57173    0.89858    1.000
    N857     N        0.13199    0.56069    0.89287    1.000
    Si858    Si       0.16103    0.58345    0.91533    1.000
    Si859    Si       0.18282    0.54711    0.97972    1.000
    N860     N        0.15014    0.55813    0.95132    1.000
    N861     N        0.21978    0.56002    0.96216    1.000
    Si862    Si       0.12440    0.58247    0.97741    1.000
    Si863    Si       0.23941    0.56648    0.92223    1.000
    N864     N        0.05176    0.59789    0.84805    1.000
    N865     N        0.06005    0.62384    0.10020    1.000
    N866     N        0.09289    0.63241    0.03501    1.000
    Si867    Si       0.02428    0.62090    0.01003    1.000
    N868     N        0.02760    0.64761    0.04355    1.000
    Si869    Si       0.06162    0.65418    0.07099    1.000
    N870     N        0.22164    0.61843    0.06376    1.000
    N871     N        0.17806    0.63495    0.10252    1.000
    N872     N        0.21012    0.62347    0.99810    1.000
    Si873    Si       0.20129    0.59987    0.09785    1.000
    Si874    Si       0.17291    0.64330    0.00024    1.000
    N875     N        0.06266    0.62427    0.17417    1.000
    Si876    Si       0.05275    0.60265    0.13707    1.000
    Si877    Si       0.09529    0.65350    0.16632    1.000
    N878     N        0.22373    0.61077    0.19866    1.000
    Si879    Si       0.15664    0.65241    0.13515    1.000
    N880     N        0.17748    0.65055    0.23193    1.000
    Si881    Si       0.19298    0.60884    0.22850    1.000
    N882     N        0.12734    0.62488    0.15242    1.000
    N883     N        0.03786    0.61663    0.34742    1.000
    N884     N        0.10060    0.61004    0.32839    1.000
    Si885    Si       0.07092    0.63945    0.33217    1.000
    Si886    Si       0.07114    0.64169    0.25728    1.000
    N887     N        0.99768    0.61857    0.29613    1.000
    Si888    Si       0.99499    0.62195    0.33954    1.000
    N889     N        0.11197    0.63021    0.25581    1.000
    N890     N        0.18496    0.62671    0.41371    1.000
    N891     N        0.04504    0.60824    0.24481    1.000
    Si892    Si       0.14077    0.62535    0.33535    1.000
    N893     N        0.15676    0.65177    0.30345    1.000
    N894     N        0.23236    0.60669    0.37122    1.000
    Si895    Si       0.05378    0.61935    0.38926    1.000
    N896     N        0.01507    0.62593    0.40697    1.000
    N897     N        0.07339    0.61989    0.47115    1.000
    Si898    Si       0.11349    0.63667    0.47114    1.000
    N899     N        0.13969    0.64949    0.37179    1.000
    Si900    Si       0.18907    0.61344    0.45630    1.000
    N901     N        0.14966    0.61533    0.47829    1.000
    N902     N        0.21548    0.63456    0.48618    1.000
    Si903    Si       0.14551    0.65838    0.26060    1.000
    N904     N        0.05155    0.62103    0.53991    1.000
    Si905    Si       0.00991    0.61210    0.54454    1.000
    Si906    Si       0.06208    0.64568    0.50484    1.000
    N907     N        0.99697    0.65028    0.56244    1.000
    N908     N        0.04715    0.64261    0.62013    1.000
    Si909    Si       0.21710    0.61568    0.52821    1.000
    N910     N        0.18141    0.64236    0.53636    1.000
    Si911    Si       0.15463    0.60897    0.52138    1.000
    N912     N        0.18336    0.65171    0.61304    1.000
    Si913    Si       0.07192    0.60530    0.62813    1.000
    Si914    Si       0.01660    0.60281    0.71075    1.000
    Si915    Si       0.09821    0.61216    0.70276    1.000
    N916     N        0.00909    0.63821    0.68614    1.000
    N917     N        0.09331    0.62672    0.66206    1.000
    N918     N        0.10995    0.64273    0.73586    1.000
    N919     N        0.03839    0.65493    0.74299    1.000
    Si920    Si       0.19189    0.64942    0.68466    1.000
    Si921    Si       0.18704    0.61064    0.62528    1.000
    Si922    Si       0.21157    0.61430    0.74434    1.000
    N923     N        0.18130    0.63914    0.72557    1.000
    N924     N        0.17462    0.61479    0.66582    1.000
    N925     N        0.22847    0.59710    0.63394    1.000
    Si926    Si       0.00197    0.64365    0.76507    1.000
    N927     N        0.00461    0.61890    0.80059    1.000
    Si928    Si       0.07466    0.64199    0.76552    1.000
    Si929    Si       0.99721    0.64601    0.83510    1.000
    N930     N        0.99140    0.61232    0.86454    1.000
    N931     N        0.07640    0.59994    0.78150    1.000
    N932     N        0.14076    0.62209    0.98128    1.000
    N933     N        0.12251    0.60488    0.83510    1.000
    N934     N        0.19693    0.63066    0.85199    1.000
    Si935    Si       0.19318    0.63705    0.80866    1.000
    N936     N        0.20960    0.60465    0.78511    1.000
    Si937    Si       0.12527    0.64548    0.82278    1.000
    N938     N        0.15477    0.64508    0.79060    1.000
    Si939    Si       0.22049    0.59959    0.86868    1.000
    Si940    Si       0.03237    0.62342    0.87835    1.000
    N941     N        0.04039    0.64631    0.97836    1.000
    Si942    Si       0.06905    0.63325    0.94959    1.000
    N943     N        0.04714    0.61590    0.91639    1.000
    N944     N        0.15869    0.62725    0.91291    1.000
    Si945    Si       0.17444    0.65331    0.88141    1.000
    Si946    Si       0.14375    0.64805    0.94608    1.000
    N947     N        0.09704    0.68115    0.07443    1.000
    Si948    Si       0.10345    0.70143    0.11092    1.000
    Si949    Si       0.00991    0.69064    0.04749    1.000
    N950     N        0.03087    0.69074    0.08716    1.000
    Si951    Si       0.16950    0.67675    0.19663    1.000
    N952     N        0.98887    0.68411    0.00619    1.000
    N953     N        0.11795    0.70039    0.01195    1.000
    N954     N        0.20896    0.69330    0.09179    1.000
    Si955    Si       0.12195    0.66815    0.04132    1.000
    N956     N        0.22737    0.67931    0.03395    1.000
    Si957    Si       0.23636    0.71325    0.05919    1.000
    N958     N        0.16330    0.65612    0.03920    1.000
    Si959    Si       0.19761    0.65778    0.06788    1.000
    N960     N        0.07699    0.68148    0.13958    1.000
    N961     N        0.06388    0.67306    0.22707    1.000
    Si962    Si       0.09908    0.69772    0.22294    1.000
    Si963    Si       0.02459    0.69673    0.23098    1.000
    N964     N        0.99857    0.68743    0.14893    1.000
    Si965    Si       0.03858    0.69554    0.12969    1.000
    N966     N        0.99784    0.66703    0.24182    1.000
    N967     N        0.14420    0.69375    0.12098    1.000
    N968     N        0.12554    0.67670    0.19295    1.000
    Si969    Si       0.22603    0.68241    0.13296    1.000
    N970     N        0.19056    0.66806    0.15942    1.000
    Si971    Si       0.04065    0.69587    0.29926    1.000
    N972     N        0.99773    0.70212    0.30628    1.000
    N973     N        0.06108    0.65914    0.29463    1.000
    Si974    Si       0.06018    0.70235    0.37300    1.000
    N975     N        0.15927    0.68574    0.48982    1.000
    N976     N        0.12916    0.69746    0.25663    1.000
    Si977    Si       0.17796    0.68731    0.31642    1.000
    N978     N        0.20569    0.70292    0.28761    1.000
    N979     N        0.20034    0.66823    0.35360    1.000
    Si980    Si       0.99829    0.66546    0.39641    1.000
    N981     N        0.02616    0.70005    0.40006    1.000
    Si982    Si       0.10915    0.66885    0.39484    1.000
    N983     N        0.11616    0.66490    0.43675    1.000
    Si984    Si       0.14466    0.69537    0.44891    1.000
    N985     N        0.17478    0.69520    0.41856    1.000
    Si986    Si       0.17650    0.66208    0.39022    1.000
    N987     N        0.07318    0.65771    0.37458    1.000
    N988     N        0.01904    0.70414    0.60087    1.000
    Si989    Si       0.01142    0.66266    0.60355    1.000
    N990     N        0.03909    0.68106    0.50783    1.000
    N991     N        0.10349    0.65764    0.50885    1.000
    N992     N        0.22354    0.70039    0.51000    1.000
    N993     N        0.13926    0.68742    0.56126    1.000
    N994     N        0.20910    0.69414    0.57986    1.000
    Si995    Si       0.12628    0.69101    0.52001    1.000
    Si996    Si       0.17545    0.66561    0.57221    1.000
    Si997    Si       0.19526    0.66827    0.50343    1.000
    N998     N        0.23128    0.66033    0.67040    1.000
    N999     N        0.10461    0.69204    0.62792    1.000
    N1000    N        0.99946    0.70826    0.70292    1.000
    N1001    N        0.05858    0.68476    0.67941    1.000
    Si1002   Si       0.02540    0.67442    0.70369    1.000
    Si1003   Si       0.07642    0.66328    0.64523    1.000
    N1004    N        0.17071    0.68806    0.67888    1.000
    N1005    N        0.21663    0.71205    0.73436    1.000
    Si1006   Si       0.13719    0.70198    0.65523    1.000
    Si1007   Si       0.19546    0.69480    0.62694    1.000
    Si1008   Si       0.08739    0.70906    0.80920    1.000
    N1009    N        0.03115    0.66182    0.85888    1.000
    N1010    N        0.08971    0.66389    0.80024    1.000
    Si1011   Si       0.04453    0.70247    0.86900    1.000
    N1012    N        0.14313    0.66940    0.85689    1.000
    N1013    N        0.21623    0.67383    0.79417    1.000
    Si1014   Si       0.19573    0.70370    0.77263    1.000
    Si1015   Si       0.14875    0.71070    0.84958    1.000
    N1016    N        0.15584    0.70000    0.75035    1.000
    N1017    N        0.10294    0.65915    0.93856    1.000
    N1018    N        0.00535    0.70995    0.95108    1.000
    Si1019   Si       0.09260    0.70106    0.93496    1.000
    Si1020   Si       0.03040    0.68988    0.98437    1.000
    N1021    N        0.06814    0.70664    0.96871    1.000
    N1022    N        0.06177    0.71273    0.90748    1.000
    Si1023   Si       0.22519    0.70461    0.87175    1.000
    Si1024   Si       0.14771    0.71226    0.97935    1.000
    Si1025   Si       0.20768    0.68863    0.94324    1.000
    N1026    N        0.20270    0.67881    0.90115    1.000
    N1027    N        0.17238    0.67760    0.96761    1.000
    Si1028   Si       0.14845    0.65462    0.74946    1.000
    N1029    N        0.09524    0.74073    0.10268    1.000
    Si1030   Si       0.07873    0.72949    0.00657    1.000
    N1031    N        0.09391    0.76347    0.03816    1.000
    Si1032   Si       0.11833    0.76105    0.07409    1.000
    Si1033   Si       0.18132    0.75961    0.03837    1.000
    N1034    N        0.15791    0.74033    0.07072    1.000
    N1035    N        0.22514    0.75380    0.04221    1.000
    Si1036   Si       0.17512    0.71842    0.10580    1.000
    N1037    N        0.17298    0.74313    0.99797    1.000
    N1038    N        0.99407    0.72357    0.20965    1.000
    Si1039   Si       0.06628    0.76311    0.12580    1.000
    N1040    N        0.03558    0.73768    0.14290    1.000
    N1041    N        0.07831    0.73392    0.21660    1.000
    Si1042   Si       0.09660    0.76170    0.18951    1.000
    Si1043   Si       0.99984    0.72942    0.16534    1.000
    N1044    N        0.23869    0.73220    0.24334    1.000
    N1045    N        0.19084    0.74151    0.13798    1.000
    N1046    N        0.13200    0.74411    0.17180    1.000
    N1047    N        0.18329    0.71658    0.20727    1.000
    Si1048   Si       0.17315    0.74814    0.17730    1.000
    Si1049   Si       0.23286    0.75493    0.13922    1.000
    N1050    N        0.04127    0.71086    0.02262    1.000
    Si1051   Si       0.07362    0.75518    0.31840    1.000
    Si1052   Si       0.99997    0.74725    0.29611    1.000
    N1053    N        0.09677    0.75265    0.27826    1.000
    N1054    N        0.03766    0.72115    0.26389    1.000
    N1055    N        0.10625    0.76698    0.34485    1.000
    Si1056   Si       0.06030    0.75742    0.25188    1.000
    N1057    N        0.05982    0.71682    0.33235    1.000
    Si1058   Si       0.11873    0.75882    0.48450    1.000
    Si1059   Si       0.13120    0.73360    0.35869    1.000
    N1060    N        0.16903    0.75560    0.26352    1.000
    Si1061   Si       0.13512    0.73537    0.28034    1.000
    N1062    N        0.14724    0.71735    0.32175    1.000
    Si1063   Si       0.19655    0.72389    0.24770    1.000
    N1064    N        0.99362    0.75906    0.40720    1.000
    Si1065   Si       0.02022    0.73264    0.42925    1.000
    Si1066   Si       0.09648    0.74722    0.41895    1.000
    N1067    N        0.05721    0.75276    0.43701    1.000
    N1068    N        0.00540    0.72011    0.46613    1.000
    N1069    N        0.23002    0.73277    0.38689    1.000
    Si1070   Si       0.19215    0.73333    0.40698    1.000
    N1071    N        0.12415    0.73328    0.44943    1.000
    N1072    N        0.19983    0.75468    0.44329    1.000
    N1073    N        0.16234    0.75000    0.38237    1.000
    N1074    N        0.10051    0.71437    0.38760    1.000
    Si1075   Si       0.08305    0.75234    0.54060    1.000
    N1076    N        0.05211    0.75265    0.50891    1.000
    N1077    N        0.08416    0.73014    0.57817    1.000
    Si1078   Si       0.99805    0.73597    0.58151    1.000
    N1079    N        0.02819    0.76596    0.59605    1.000
    N1080    N        0.99572    0.72062    0.54115    1.000
    Si1081   Si       0.05214    0.73185    0.60789    1.000
    Si1082   Si       0.02300    0.72048    0.50568    1.000
    N1083    N        0.11248    0.73033    0.51493    1.000
    N1084    N        0.22198    0.76359    0.54305    1.000
    N1085    N        0.14795    0.75224    0.57390    1.000
    Si1086   Si       0.16367    0.76125    0.61203    1.000
    Si1087   Si       0.22698    0.72065    0.54698    1.000
    Si1088   Si       0.07496    0.72514    0.67886    1.000
    N1089    N        0.05522    0.74790    0.71168    1.000
    Si1090   Si       0.01275    0.75258    0.70602    1.000
    N1091    N        0.05895    0.74758    0.64630    1.000
    N1092    N        0.99820    0.76476    0.74381    1.000
    N1093    N        0.22866    0.71905    0.64268    1.000
    N1094    N        0.15980    0.71828    0.62306    1.000
    Si1095   Si       0.17872    0.71648    0.71158    1.000
    Si1096   Si       0.13129    0.76631    0.70354    1.000
    Si1097   Si       0.23742    0.76155    0.63830    1.000
    N1098    N        0.17446    0.75887    0.70345    1.000
    N1099    N        0.11827    0.72999    0.68242    1.000
    Si1100   Si       0.12485    0.71427    0.59059    1.000
    Si1101   Si       0.07680    0.75787    0.74812    1.000
    N1102    N        0.12019    0.76049    0.74607    1.000
    N1103    N        0.06564    0.72833    0.84093    1.000
    N1104    N        0.06792    0.72575    0.77602    1.000
    Si1105   Si       0.99697    0.76167    0.78671    1.000
    Si1106   Si       0.06022    0.77101    0.83606    1.000
    Si1107   Si       0.19345    0.76309    0.96580    1.000
    Si1108   Si       0.14513    0.73705    0.77446    1.000
    N1109    N        0.18681    0.74313    0.78659    1.000
    Si1110   Si       0.19482    0.75857    0.82614    1.000
    N1111    N        0.19213    0.72257    0.84907    1.000
    N1112    N        0.12925    0.71935    0.81077    1.000
    N1113    N        0.13149    0.74045    0.87554    1.000
    N1114    N        0.05725    0.76585    0.98807    1.000
    N1115    N        0.01343    0.77186    0.92632    1.000
    Si1116   Si       0.02387    0.72923    0.91880    1.000
    N1117    N        0.00678    0.72090    0.87904    1.000
    Si1118   Si       0.13704    0.75736    0.91523    1.000
    N1119    N        0.21484    0.73255    0.94514    1.000
    N1120    N        0.12769    0.72535    0.94398    1.000
    Si1121   Si       0.06513    0.79291    0.02273    1.000
    Si1122   Si       0.01477    0.80357    0.08047    1.000
    N1123    N        0.05113    0.79293    0.09911    1.000
    N1124    N        0.02419    0.80656    0.03710    1.000
    Si1125   Si       0.08628    0.82097    0.10025    1.000
    Si1126   Si       0.99267    0.82581    0.01241    1.000
    N1127    N        0.07978    0.83119    0.00648    1.000
    N1128    N        0.12370    0.80097    0.09113    1.000
    N1129    N        0.17393    0.80121    0.04198    1.000
    Si1130   Si       0.16060    0.82100    0.07794    1.000
    Si1131   Si       0.20128    0.82092    0.01460    1.000
    N1132    N        0.23809    0.82273    0.03881    1.000
    Si1133   Si       0.22800    0.83132    0.12531    1.000
    N1134    N        0.08402    0.78649    0.15695    1.000
    N1135    N        0.03813    0.78632    0.22817    1.000
    Si1136   Si       0.02543    0.82305    0.20845    1.000
    Si1137   Si       0.09269    0.82585    0.17645    1.000
    N1138    N        0.00119    0.82523    0.16940    1.000
    N1139    N        0.11014    0.79387    0.21304    1.000
    Si1140   Si       0.22425    0.79864    0.19379    1.000
    N1141    N        0.22755    0.80654    0.23503    1.000
    N1142    N        0.18193    0.78895    0.19083    1.000
    Si1143   Si       0.14858    0.81153    0.20984    1.000
    N1144    N        0.23370    0.83312    0.16890    1.000
    Si1145   Si       0.02878    0.81036    0.31827    1.000
    N1146    N        0.03428    0.80370    0.36061    1.000
    Si1147   Si       0.99756    0.78365    0.37177    1.000
    N1148    N        0.21163    0.79872    0.30092    1.000
    Si1149   Si       0.19291    0.79458    0.26314    1.000
    N1150    N        0.16275    0.82335    0.24885    1.000
    N1151    N        0.15417    0.82671    0.36997    1.000
    Si1152   Si       0.11866    0.79991    0.37090    1.000
    N1153    N        0.02258    0.81036    0.47724    1.000
    Si1154   Si       0.09629    0.81908    0.43693    1.000
    N1155    N        0.09351    0.79398    0.47336    1.000
    N1156    N        0.10785    0.78799    0.41022    1.000
    Si1157   Si       0.05273    0.77879    0.47456    1.000
    Si1158   Si       0.18736    0.82730    0.39748    1.000
    N1159    N        0.03844    0.77209    0.29947    1.000
    N1160    N        0.22377    0.81078    0.38619    1.000
    N1161    N        0.17747    0.82223    0.44021    1.000
    N1162    N        0.22788    0.79658    0.48188    1.000
    Si1163   Si       0.18673    0.78898    0.46797    1.000
    Si1164   Si       0.02113    0.80398    0.57446    1.000
    N1165    N        0.10621    0.78952    0.54085    1.000
    Si1166   Si       0.99530    0.81838    0.51005    1.000
    N1167    N        0.05782    0.82770    0.57282    1.000
    N1168    N        0.01591    0.82522    0.61525    1.000
    N1169    N        0.99589    0.79081    0.54371    1.000
    Si1170   Si       0.09133    0.83101    0.54677    1.000
    Si1171   Si       0.20932    0.79297    0.57087    1.000
    N1172    N        0.17301    0.81070    0.55544    1.000
    Si1173   Si       0.14941    0.77796    0.53961    1.000
    N1174    N        0.20447    0.77446    0.60928    1.000
    N1175    N        0.07055    0.81458    0.64331    1.000
    Si1176   Si       0.03609    0.78568    0.63935    1.000
    N1177    N        0.00487    0.78033    0.67220    1.000
    Si1178   Si       0.09584    0.82999    0.73403    1.000
    Si1179   Si       0.11251    0.81102    0.65484    1.000
    N1180    N        0.11421    0.80724    0.69801    1.000
    Si1181   Si       0.20068    0.79314    0.69689    1.000
    N1182    N        0.22537    0.80698    0.73314    1.000
    N1183    N        0.13837    0.77942    0.64066    1.000
    N1184    N        0.15770    0.77653    0.49669    1.000
    Si1185   Si       0.04064    0.81645    0.78180    1.000
    N1186    N        0.10011    0.78632    0.82321    1.000
    N1187    N        0.03139    0.78141    0.80459    1.000
    N1188    N        0.07030    0.80049    0.75459    1.000
    Si1189   Si       0.10269    0.82703    0.80870    1.000
    N1190    N        0.16738    0.78828    0.84377    1.000
    Si1191   Si       0.12675    0.78076    0.85757    1.000
    N1192    N        0.23334    0.77751    0.83383    1.000
    N1193    N        0.16678    0.78038    0.93557    1.000
    N1194    N        0.05494    0.79346    0.87434    1.000
    N1195    N        0.00508    0.81222    0.97427    1.000
    Si1196   Si       0.03902    0.79092    0.95789    1.000
    N1197    N        0.07058    0.81281    0.94081    1.000
    Si1198   Si       0.08265    0.81827    0.89984    1.000
    Si1199   Si       0.01400    0.79385    0.88802    1.000
    N1200    N        0.11891    0.79564    0.90045    1.000
    Si1201   Si       0.15153    0.81854    0.92200    1.000
    N1202    N        0.21564    0.79481    0.98197    1.000
    Si1203   Si       0.09024    0.86822    0.03230    1.000
    N1204    N        0.08604    0.85549    0.07204    1.000
    N1205    N        0.00032    0.84124    0.10041    1.000
    Si1206   Si       0.10351    0.88712    0.09739    1.000
    N1207    N        0.99220    0.86636    0.02958    1.000
    N1208    N        0.15933    0.86056    0.06439    1.000
    N1209    N        0.12699    0.87762    0.00942    1.000
    Si1210   Si       0.17615    0.87980    0.10286    1.000
    N1211    N        0.18825    0.83503    0.11019    1.000
    Si1212   Si       0.07604    0.88311    0.21759    1.000
    Si1213   Si       0.06306    0.88131    0.14918    1.000
    N1214    N        0.08584    0.84761    0.13468    1.000
    N1215    N        0.05940    0.84751    0.19566    1.000
    Si1216   Si       0.99467    0.85935    0.14132    1.000
    N1217    N        0.99741    0.83619    0.23998    1.000
    N1218    N        0.02061    0.89070    0.15555    1.000
    N1219    N        0.13385    0.84205    0.18135    1.000
    Si1220   Si       0.13476    0.88232    0.16645    1.000
    N1221    N        0.13905    0.88819    0.12382    1.000
    Si1222   Si       0.08418    0.86533    0.29156    1.000
    Si1223   Si       0.00873    0.85453    0.27708    1.000
    N1224    N        0.04771    0.84202    0.29347    1.000
    N1225    N        0.03347    0.87241    0.36534    1.000
    N1226    N        0.09440    0.83646    0.36384    1.000
    N1227    N        0.10014    0.86629    0.24963    1.000
    N1228    N        0.12490    0.85463    0.30639    1.000
    Si1229   Si       0.13020    0.85748    0.34997    1.000
    Si1230   Si       0.14051    0.85790    0.26578    1.000
    Si1231   Si       0.23683    0.88321    0.30831    1.000
    N1232    N        0.02708    0.87857    0.46671    1.000
    Si1233   Si       0.02209    0.84095    0.44517    1.000
    Si1234   Si       0.05478    0.83747    0.38157    1.000
    Si1235   Si       0.00040    0.88351    0.39159    1.000
    N1236    N        0.98995    0.85370    0.41934    1.000
    Si1237   Si       0.10975    0.86957    0.48845    1.000
    N1238    N        0.11990    0.85347    0.44863    1.000
    N1239    N        0.20631    0.87166    0.39035    1.000
    Si1240   Si       0.16069    0.85367    0.46397    1.000
    Si1241   Si       0.21534    0.88849    0.43090    1.000
    N1242    N        0.05660    0.83147    0.42280    1.000
    N1243    N        0.00473    0.85949    0.52859    1.000
    N1244    N        0.07547    0.85480    0.51226    1.000
    Si1245   Si       0.03867    0.87715    0.50842    1.000
    Si1246   Si       0.05520    0.84304    0.61413    1.000
    N1247    N        0.07656    0.88012    0.61597    1.000
    Si1248   Si       0.12014    0.87251    0.61017    1.000
    Si1249   Si       0.22943    0.86195    0.55588    1.000
    N1250    N        0.12173    0.85348    0.56964    1.000
    N1251    N        0.22485    0.86479    0.51318    1.000
    Si1252   Si       0.15755    0.85149    0.54646    1.000
    N1253    N        0.18753    0.87645    0.56452    1.000
    N1254    N        0.14795    0.85395    0.50428    1.000
    N1255    N        0.06290    0.85935    0.72923    1.000
    N1256    N        0.12422    0.87321    0.71033    1.000
    Si1257   Si       0.02561    0.87069    0.74573    1.000
    N1258    N        0.24008    0.87999    0.71279    1.000
    Si1259   Si       0.15448    0.86270    0.67977    1.000
    N1260    N        0.18500    0.83489    0.69287    1.000
    N1261    N        0.13262    0.84931    0.64397    1.000
    Si1262   Si       0.21097    0.84918    0.72726    1.000
    N1263    N        0.99690    0.88647    0.71742    1.000
    N1264    N        0.06278    0.84115    0.80997    1.000
    Si1265   Si       0.05137    0.88200    0.81609    1.000
    N1266    N        0.01776    0.88434    0.84355    1.000
    N1267    N        0.00856    0.83323    0.76052    1.000
    Si1268   Si       0.11393    0.87757    0.86264    1.000
    Si1269   Si       0.17111    0.83495    0.84948    1.000
    N1270    N        0.11735    0.84645    0.76984    1.000
    N1271    N        0.13027    0.84379    0.83760    1.000
    Si1272   Si       0.19715    0.87931    0.79708    1.000
    N1273    N        0.18332    0.86489    0.75778    1.000
    N1274    N        0.20208    0.84509    0.82324    1.000
    Si1275   Si       0.14297    0.87843    0.75207    1.000
    Si1276   Si       0.09174    0.84341    0.96538    1.000
    N1277    N        0.08621    0.86183    0.89367    1.000
    N1278    N        0.07884    0.88542    0.95773    1.000
    N1279    N        0.00198    0.83260    0.89623    1.000
    N1280    N        0.22163    0.86964    0.92904    1.000
    Si1281   Si       0.18253    0.88300    0.90681    1.000
    N1282    N        0.17183    0.84353    0.89162    1.000
    N1283    N        0.13364    0.83921    0.95533    1.000
    Si1284   Si       0.15564    0.87284    0.97520    1.000
    Si1285   Si       0.22747    0.87200    0.97161    1.000
    N1286    N        0.19255    0.85677    0.99185    1.000
    Si1287   Si       0.03866    0.92945    0.09259    1.000
    N1288    N        0.01161    0.90384    0.07295    1.000
    Si1289   Si       0.01742    0.90381    0.02837    1.000
    N1290    N        0.06945    0.90814    0.11516    1.000
    N1291    N        0.05882    0.89767    0.01959    1.000
    N1292    N        0.10809    0.94580    0.00956    1.000
    N1293    N        0.11649    0.91001    0.06433    1.000
    Si1294   Si       0.23050    0.90992    0.09457    1.000
    N1295    N        0.17231    0.92174    0.01042    1.000
    N1296    N        0.18776    0.91455    0.07431    1.000
    Si1297   Si       0.21407    0.92308    0.02820    1.000
    Si1298   Si       0.15152    0.89603    0.04034    1.000
    N1299    N        0.10330    0.94317    0.22432    1.000
    Si1300   Si       0.01694    0.93585    0.16097    1.000
    N1301    N        0.09296    0.89895    0.17695    1.000
    Si1302   Si       0.09192    0.94349    0.18109    1.000
    N1303    N        0.04516    0.90314    0.23850    1.000
    N1304    N        0.21174    0.95004    0.17156    1.000
    Si1305   Si       0.14540    0.92613    0.22472    1.000
    N1306    N        0.23278    0.89355    0.20211    1.000
    N1307    N        0.20827    0.89510    0.13135    1.000
    N1308    N        0.16047    0.90897    0.18740    1.000
    Si1309   Si       0.20274    0.90830    0.17260    1.000
    Si1310   Si       0.10405    0.94808    0.05224    1.000
    N1311    N        0.00173    0.93078    0.99701    1.000
    Si1312   Si       0.03898    0.92015    0.27878    1.000
    Si1313   Si       0.05078    0.90800    0.34847    1.000
    N1314    N        0.06797    0.90255    0.30871    1.000
    N1315    N        0.02431    0.94387    0.33797    1.000
    N1316    N        0.00202    0.89690    0.28265    1.000
    N1317    N        0.15481    0.89831    0.25714    1.000
    Si1318   Si       0.18082    0.91717    0.28476    1.000
    N1319    N        0.21480    0.92933    0.26247    1.000
    N1320    N        0.19345    0.94051    0.36339    1.000
    Si1321   Si       0.18822    0.89845    0.35814    1.000
    N1322    N        0.14319    0.89665    0.36048    1.000
    N1323    N        0.19698    0.89355    0.31639    1.000
    N1324    N        0.07878    0.92122    0.37843    1.000
    N1325    N        0.01959    0.91722    0.41069    1.000
    Si1326   Si       0.01955    0.91942    0.45554    1.000
    Si1327   Si       0.08056    0.93928    0.48843    1.000
    N1328    N        0.05674    0.94341    0.45167    1.000
    Si1329   Si       0.05614    0.94103    0.40856    1.000
    N1330    N        0.11352    0.91279    0.48601    1.000
    N1331    N        0.13312    0.93372    0.42366    1.000
    Si1332   Si       0.12079    0.92790    0.38185    1.000
    N1333    N        0.23365    0.92520    0.42318    1.000
    Si1334   Si       0.14968    0.92238    0.45990    1.000
    N1335    N        0.18196    0.89229    0.46224    1.000
    N1336    N        0.00631    0.92029    0.56220    1.000
    N1337    N        0.04952    0.91906    0.51226    1.000
    Si1338   Si       0.00528    0.92069    0.60819    1.000
    Si1339   Si       0.03079    0.94757    0.53755    1.000
    Si1340   Si       0.17600    0.91891    0.57556    1.000
    N1341    N        0.19982    0.93537    0.53009    1.000
    N1342    N        0.21185    0.93168    0.59619    1.000
    N1343    N        0.14591    0.90705    0.60796    1.000
    N1344    N        0.14286    0.94863    0.55370    1.000
    Si1345   Si       0.20784    0.90333    0.49985    1.000
    N1346    N        0.04009    0.94343    0.62152    1.000
    Si1347   Si       0.01123    0.89968    0.67891    1.000
    N1348    N        0.08441    0.92997    0.72531    1.000
    Si1349   Si       0.07045    0.91674    0.63939    1.000
    N1350    N        0.10629    0.93073    0.66061    1.000
    N1351    N        0.05494    0.89780    0.67642    1.000
    N1352    N        0.99371    0.94163    0.67932    1.000
    Si1353   Si       0.08483    0.88949    0.70680    1.000
    N1354    N        0.23220    0.93011    0.66293    1.000
    N1355    N        0.20377    0.93577    0.73069    1.000
    N1356    N        0.17325    0.90084    0.67625    1.000
    Si1357   Si       0.14860    0.92507    0.64955    1.000
    Si1358   Si       0.21229    0.90975    0.69557    1.000
    N1359    N        0.00409    0.88910    0.63774    1.000
    N1360    N        0.08563    0.90011    0.83621    1.000
    Si1361   Si       0.05628    0.93659    0.75709    1.000
    N1362    N        0.04111    0.90076    0.77586    1.000
    Si1363   Si       0.08446    0.94339    0.83066    1.000
    Si1364   Si       0.02202    0.91953    0.86884    1.000
    Si1365   Si       0.18186    0.93191    0.86008    1.000
    N1366    N        0.18078    0.91201    0.82063    1.000
    N1367    N        0.14549    0.92081    0.75522    1.000
    Si1368   Si       0.23388    0.93021    0.76397    1.000
    N1369    N        0.23722    0.89403    0.78612    1.000
    N1370    N        0.09679    0.92904    0.90933    1.000
    Si1371   Si       0.08069    0.91924    0.98706    1.000
    N1372    N        0.02661    0.90654    0.90889    1.000
    Si1373   Si       0.06919    0.89634    0.91659    1.000
    Si1374   Si       0.13964    0.93150    0.91655    1.000
    N1375    N        0.16258    0.90145    0.94281    1.000
    N1376    N        0.23554    0.91149    0.99089    1.000
    N1377    N        0.21393    0.91168    0.88692    1.000
    N1378    N        0.14908    0.89970    0.87886    1.000
    N1379    N        0.02871    0.98674    0.02023    1.000
    Si1380   Si       0.05396    0.99630    0.05553    1.000
    N1381    N        0.06526    0.95683    0.07032    1.000
    Si1382   Si       0.99364    0.99805    0.04347    1.000
    N1383    N        0.16698    0.96564    0.22793    1.000
    Si1384   Si       0.01298    0.00057    0.12012    1.000
    N1385    N        0.21385    0.96485    0.04473    1.000
    N1386    N        0.13786    0.97314    0.06280    1.000
    Si1387   Si       0.20760    0.99522    0.01097    1.000
    Si1388   Si       0.17750    0.95672    0.07278    1.000
    N1389    N        0.17923    0.97088    0.11279    1.000
    N1390    N        0.01717    0.95441    0.12166    1.000
    Si1391   Si       0.04149    0.99576    0.18942    1.000
    N1392    N        0.00441    0.00428    0.20959    1.000
    N1393    N        0.05037    0.95449    0.17836    1.000
    N1394    N        0.06985    0.00460    0.21961    1.000
    Si1395   Si       0.19810    0.97947    0.20076    1.000
    Si1396   Si       0.21205    0.97965    0.13943    1.000
    Si1397   Si       0.14986    0.99009    0.13954    1.000
    N1398    N        0.12343    0.96626    0.16216    1.000
    N1399    N        0.18492    0.00622    0.16697    1.000
    N1400    N        0.22833    0.99272    0.22971    1.000
    N1401    N        0.16651    0.99155    0.00076    1.000
    Si1402   Si       0.03605    0.98045    0.31599    1.000
    N1403    N        0.05217    0.96369    0.27892    1.000
    N1404    N        0.99505    0.99788    0.31941    1.000
    Si1405   Si       0.08316    0.97479    0.25048    1.000
    N1406    N        0.18873    0.98001    0.41678    1.000
    N1407    N        0.11688    0.99512    0.26705    1.000
    Si1408   Si       0.15688    0.98199    0.26614    1.000
    Si1409   Si       0.16603    0.96683    0.34259    1.000
    N1410    N        0.12543    0.96529    0.35868    1.000
    N1411    N        0.16331    0.95346    0.30058    1.000
    N1412    N        0.23181    0.98183    0.30448    1.000
    Si1413   Si       0.09422    0.99496    0.37007    1.000
    N1414    N        0.06569    0.98184    0.39887    1.000
    N1415    N        0.00428    0.00020    0.43728    1.000
    Si1416   Si       0.16514    0.99125    0.44985    1.000
    N1417    N        0.16771    0.95850    0.47854    1.000
    Si1418   Si       0.21881    0.95769    0.39747    1.000
    Si1419   Si       0.10075    0.01147    0.48400    1.000
    N1420    N        0.01225    0.98138    0.51436    1.000
    Si1421   Si       0.04720    0.98152    0.60062    1.000
    N1422    N        0.06426    0.96406    0.56353    1.000
    Si1423   Si       0.10330    0.97020    0.55013    1.000
    N1424    N        0.09722    0.97501    0.50549    1.000
    N1425    N        0.16846    0.96145    0.64201    1.000
    N1426    N        0.23720    0.99360    0.50086    1.000
    Si1427   Si       0.16812    0.96435    0.52168    1.000
    N1428    N        0.17511    0.00493    0.53016    1.000
    Si1429   Si       0.23718    0.95729    0.52145    1.000
    Si1430   Si       0.20989    0.95440    0.63337    1.000
    N1431    N        0.07884    0.99562    0.69688    1.000
    Si1432   Si       0.10263    0.95848    0.69674    1.000
    Si1433   Si       0.00333    0.97371    0.70563    1.000
    N1434    N        0.02893    0.96540    0.74170    1.000
    N1435    N        0.14581    0.97000    0.70216    1.000
    N1436    N        0.22829    0.99366    0.62883    1.000
    Si1437   Si       0.15180    0.99378    0.66487    1.000
    Si1438   Si       0.16609    0.95350    0.73836    1.000
    Si1439   Si       0.03123    0.98720    0.83263    1.000
    Si1440   Si       0.09864    0.99488    0.79951    1.000
    N1441    N        0.00515    0.98980    0.79887    1.000
    N1442    N        0.08100    0.95578    0.78701    1.000
    N1443    N        0.11700    0.96898    0.83594    1.000
    N1444    N        0.04428    0.95029    0.84654    1.000
    Si1445   Si       0.19246    0.99434    0.87941    1.000
    N1446    N        0.17772    0.99175    0.75491    1.000
    N1447    N        0.20588    0.96751    0.84686    1.000
    N1448    N        0.09739    0.99844    0.90254    1.000
    N1449    N        0.00462    0.99956    0.95858    1.000
    Si1450   Si       0.02411    0.96707    0.98211    1.000
    Si1451   Si       0.08894    0.96685    0.93287    1.000
    N1452    N        0.06016    0.95180    0.96345    1.000
    N1453    N        0.21995    0.97939    0.91156    1.000
    N1454    N        0.13058    0.96023    0.95100    1.000
    Si1455   Si       0.14575    0.95431    0.99103    1.000
    Si1456   Si       0.12794    0.98808    0.87382    1.000
    Si1457   Si       0.23782    0.00429    0.94027    1.000
    N1458    N        0.15920    0.96143    0.88819    1.000
    N1459    N        0.23794    0.98707    0.98191    1.000
    N1460    N        0.33000    0.03448    0.04329    1.000
    Si1461   Si       0.29819    0.05903    0.02681    1.000
    N1462    N        0.26958    0.06399    0.06026    1.000
    N1463    N        0.35274    0.06359    0.12067    1.000
    Si1464   Si       0.36900    0.03933    0.02394    1.000
    Si1465   Si       0.38224    0.03900    0.09868    1.000
    N1466    N        0.39500    0.03825    0.05827    1.000
    Si1467   Si       0.43713    0.03712    0.04954    1.000
    N1468    N        0.44165    0.02001    0.01081    1.000
    Si1469   Si       0.45044    0.01218    0.11560    1.000
    N1470    N        0.46455    0.01278    0.07510    1.000
    N1471    N        0.42247    0.04582    0.11691    1.000
    Si1472   Si       0.48534    0.02321    0.99833    1.000
    Si1473   Si       0.32411    0.02841    0.12356    1.000
    N1474    N        0.28651    0.05857    0.12440    1.000
    Si1475   Si       0.25620    0.04072    0.15093    1.000
    N1476    N        0.32239    0.03842    0.23702    1.000
    Si1477   Si       0.30831    0.04460    0.19618    1.000
    N1478    N        0.26552    0.04708    0.19288    1.000
    N1479    N        0.32030    0.01644    0.16541    1.000
    Si1480   Si       0.23947    0.03517    0.22471    1.000
    Si1481   Si       0.47793    0.05434    0.17541    1.000
    Si1482   Si       0.40235    0.05583    0.20719    1.000
    Si1483   Si       0.46812    0.04059    0.23826    1.000
    N1484    N        0.48418    0.02706    0.14115    1.000
    N1485    N        0.38226    0.01628    0.21278    1.000
    N1486    N        0.44281    0.04237    0.20181    1.000
    Si1487   Si       0.29682    0.05463    0.26716    1.000
    N1488    N        0.30770    0.04028    0.30569    1.000
    N1489    N        0.25352    0.05409    0.26006    1.000
    N1490    N        0.47164    0.02582    0.32186    1.000
    N1491    N        0.40579    0.02128    0.35201    1.000
    Si1492   Si       0.44900    0.02026    0.35965    1.000
    Si1493   Si       0.39511    0.06245    0.34074    1.000
    N1494    N        0.44546    0.06329    0.26765    1.000
    Si1495   Si       0.46665    0.06440    0.30395    1.000
    N1496    N        0.29344    0.02083    0.39961    1.000
    Si1497   Si       0.26699    0.04887    0.41859    1.000
    N1498    N        0.26458    0.04252    0.46333    1.000
    Si1499   Si       0.33043    0.03552    0.38341    1.000
    N1500    N        0.35993    0.04048    0.41639    1.000
    Si1501   Si       0.48323    0.05642    0.48950    1.000
    Si1502   Si       0.38071    0.01651    0.44748    1.000
    N1503    N        0.45761    0.05056    0.38912    1.000
    N1504    N        0.38594    0.03887    0.48524    1.000
    N1505    N        0.47641    0.03220    0.45427    1.000
    Si1506   Si       0.44272    0.04180    0.42976    1.000
    N1507    N        0.34560    0.05364    0.54696    1.000
    Si1508   Si       0.32223    0.04528    0.58677    1.000
    N1509    N        0.34855    0.04299    0.62040    1.000
    Si1510   Si       0.48961    0.03439    0.62814    1.000
    Si1511   Si       0.38109    0.03188    0.52756    1.000
    N1512    N        0.42050    0.03184    0.54533    1.000
    Si1513   Si       0.42527    0.03886    0.59278    1.000
    N1514    N        0.46948    0.03623    0.58478    1.000
    Si1515   Si       0.45916    0.01437    0.54828    1.000
    N1516    N        0.35532    0.03097    0.73801    1.000
    Si1517   Si       0.28992    0.05565    0.67578    1.000
    N1518    N        0.31863    0.02388    0.68005    1.000
    Si1519   Si       0.25886    0.02774    0.73370    1.000
    N1520    N        0.25526    0.05137    0.64994    1.000
    Si1521   Si       0.35158    0.01356    0.65231    1.000
    N1522    N        0.45308    0.03793    0.70516    1.000
    Si1523   Si       0.42232    0.04313    0.67515    1.000
    N1524    N        0.43960    0.03032    0.63644    1.000
    N1525    N        0.29797    0.00816    0.58868    1.000
    N1526    N        0.31787    0.04481    0.81711    1.000
    Si1527   Si       0.25846    0.04731    0.85949    1.000
    N1528    N        0.24882    0.04057    0.77242    1.000
    Si1529   Si       0.28274    0.05834    0.79888    1.000
    N1530    N        0.26945    0.00932    0.83813    1.000
    N1531    N        0.36845    0.05993    0.86496    1.000
    Si1532   Si       0.37875    0.05752    0.76230    1.000
    N1533    N        0.41008    0.03659    0.78088    1.000
    N1534    N        0.48429    0.06158    0.83432    1.000
    Si1535   Si       0.47370    0.03850    0.86927    1.000
    Si1536   Si       0.44363    0.04389    0.74867    1.000
    N1537    N        0.28736    0.03524    0.99055    1.000
    N1538    N        0.34151    0.04629    0.93360    1.000
    Si1539   Si       0.30159    0.04572    0.95058    1.000
    Si1540   Si       0.33418    0.04465    0.88947    1.000
    N1541    N        0.29523    0.06338    0.88180    1.000
    N1542    N        0.28190    0.01053    0.93190    1.000
    N1543    N        0.43272    0.03463    0.88170    1.000
    Si1544   Si       0.38140    0.05440    0.95220    1.000
    N1545    N        0.40598    0.01776    0.94135    1.000
    Si1546   Si       0.40640    0.07067    0.88313    1.000
    Si1547   Si       0.28124    0.08792    0.09357    1.000
    N1548    N        0.29913    0.10130    0.01376    1.000
    N1549    N        0.25240    0.11459    0.11252    1.000
    N1550    N        0.31204    0.11688    0.08026    1.000
    N1551    N        0.41162    0.11219    0.11119    1.000
    Si1552   Si       0.42573    0.11209    0.07119    1.000
    Si1553   Si       0.47116    0.09927    0.02312    1.000
    N1554    N        0.44869    0.07867    0.05487    1.000
    N1555    N        0.39294    0.11765    0.04332    1.000
    Si1556   Si       0.39883    0.10935    0.00150    1.000
    Si1557   Si       0.34022    0.08966    0.23304    1.000
    N1558    N        0.33133    0.08148    0.19070    1.000
    Si1559   Si       0.35440    0.08877    0.15516    1.000
    Si1560   Si       0.42643    0.08314    0.13953    1.000
    N1561    N        0.39628    0.07982    0.17029    1.000
    N1562    N        0.38447    0.08246    0.23641    1.000
    N1563    N        0.46386    0.09226    0.15802    1.000
    Si1564   Si       0.39287    0.12764    0.23764    1.000
    N1565    N        0.25931    0.11010    0.30066    1.000
    N1566    N        0.31752    0.09256    0.27086    1.000
    Si1567   Si       0.33075    0.07951    0.31495    1.000
    N1568    N        0.33698    0.07068    0.35984    1.000
    N1569    N        0.32077    0.12303    0.32784    1.000
    Si1570   Si       0.29774    0.12792    0.29060    1.000
    Si1571   Si       0.40605    0.08362    0.27917    1.000
    N1572    N        0.43373    0.08248    0.32750    1.000
    Si1573   Si       0.42820    0.11554    0.35623    1.000
    N1574    N        0.37278    0.07244    0.30287    1.000
    Si1575   Si       0.35240    0.10925    0.37241    1.000
    Si1576   Si       0.31218    0.10499    0.44837    1.000
    N1577    N        0.27962    0.08913    0.42311    1.000
    N1578    N        0.34798    0.10836    0.41880    1.000
    N1579    N        0.32340    0.08512    0.48507    1.000
    Si1580   Si       0.24308    0.07674    0.48011    1.000
    Si1581   Si       0.24035    0.10421    0.41340    1.000
    N1582    N        0.40912    0.12623    0.27616    1.000
    Si1583   Si       0.48310    0.08629    0.38890    1.000
    N1584    N        0.41492    0.07333    0.44048    1.000
    Si1585   Si       0.41021    0.07728    0.48402    1.000
    N1586    N        0.39227    0.09251    0.37340    1.000
    Si1587   Si       0.38122    0.07928    0.41361    1.000
    N1588    N        0.45405    0.11897    0.39008    1.000
    N1589    N        0.45385    0.08695    0.49297    1.000
    Si1590   Si       0.34421    0.09063    0.52217    1.000
    N1591    N        0.29395    0.07656    0.59975    1.000
    N1592    N        0.35242    0.11318    0.61828    1.000
    Si1593   Si       0.25248    0.06945    0.61006    1.000
    Si1594   Si       0.48660    0.07656    0.58492    1.000
    N1595    N        0.46161    0.10742    0.56926    1.000
    N1596    N        0.40764    0.07821    0.59979    1.000
    Si1597   Si       0.42628    0.11696    0.59159    1.000
    N1598    N        0.38627    0.10395    0.50671    1.000
    Si1599   Si       0.31279    0.12277    0.69519    1.000
    Si1600   Si       0.31046    0.10712    0.62427    1.000
    N1601    N        0.30332    0.09511    0.66465    1.000
    N1602    N        0.34177    0.10359    0.72167    1.000
    Si1603   Si       0.26361    0.09850    0.74371    1.000
    N1604    N        0.39359    0.07621    0.66941    1.000
    Si1605   Si       0.38201    0.10011    0.70442    1.000
    N1606    N        0.48732    0.07955    0.63033    1.000
    N1607    N        0.40489    0.08424    0.73783    1.000
    Si1608   Si       0.37619    0.07820    0.62917    1.000
    N1609    N        0.27124    0.06288    0.71493    1.000
    N1610    N        0.25660    0.11545    0.49288    1.000
    N1611    N        0.29412    0.09099    0.77269    1.000
    N1612    N        0.33115    0.11278    0.84345    1.000
    Si1613   Si       0.33277    0.10904    0.76328    1.000
    Si1614   Si       0.34957    0.07535    0.82890    1.000
    N1615    N        0.25003    0.07494    0.82510    1.000
    N1616    N        0.36061    0.08601    0.78745    1.000
    N1617    N        0.38248    0.06848    0.99419    1.000
    Si1618   Si       0.45843    0.09577    0.82452    1.000
    N1619    N        0.46665    0.07883    0.76360    1.000
    Si1620   Si       0.43618    0.10693    0.75643    1.000
    N1621    N        0.43559    0.09787    0.86460    1.000
    N1622    N        0.42838    0.11753    0.79851    1.000
    N1623    N        0.28317    0.08538    0.94682    1.000
    Si1624   Si       0.26727    0.10645    0.98213    1.000
    Si1625   Si       0.28487    0.10069    0.90415    1.000
    N1626    N        0.24203    0.09699    0.88954    1.000
    N1627    N        0.39754    0.08354    0.92483    1.000
    N1628    N        0.44188    0.11371    0.99332    1.000
    Si1629   Si       0.39514    0.12737    0.92925    1.000
    N1630    N        0.34362    0.15725    0.02522    1.000
    N1631    N        0.27653    0.16636    0.03640    1.000
    Si1632   Si       0.32934    0.14281    0.10944    1.000
    Si1633   Si       0.30859    0.13547    0.04063    1.000
    N1634    N        0.29835    0.17052    0.11876    1.000
    N1635    N        0.36196    0.16592    0.09293    1.000
    Si1636   Si       0.25802    0.15558    0.12308    1.000
    Si1637   Si       0.37718    0.15693    0.05142    1.000
    N1638    N        0.45258    0.14455    0.06997    1.000
    Si1639   Si       0.38931    0.14516    0.12585    1.000
    Si1640   Si       0.32455    0.16852    0.23342    1.000
    N1641    N        0.35041    0.13537    0.23003    1.000
    N1642    N        0.24454    0.16257    0.16278    1.000
    N1643    N        0.35268    0.13127    0.14494    1.000
    N1644    N        0.42285    0.14953    0.21627    1.000
    Si1645   Si       0.45902    0.17410    0.23100    1.000
    N1646    N        0.41464    0.17377    0.14411    1.000
    Si1647   Si       0.41270    0.17938    0.18624    1.000
    Si1648   Si       0.28705    0.18441    0.99634    1.000
    Si1649   Si       0.44766    0.18387    0.05686    1.000
    N1650    N        0.31029    0.18515    0.19637    1.000
    N1651    N        0.27092    0.16366    0.33896    1.000
    Si1652   Si       0.31498    0.16015    0.35071    1.000
    N1653    N        0.29177    0.15812    0.26036    1.000
    Si1654   Si       0.24379    0.13062    0.33500    1.000
    Si1655   Si       0.25661    0.18457    0.25982    1.000
    Si1656   Si       0.42203    0.16035    0.29624    1.000
    N1657    N        0.41488    0.15156    0.33876    1.000
    Si1658   Si       0.37771    0.17965    0.34598    1.000
    Si1659   Si       0.45906    0.15374    0.41495    1.000
    N1660    N        0.46702    0.15322    0.45699    1.000
    Si1661   Si       0.46591    0.12791    0.49269    1.000
    N1662    N        0.35480    0.15267    0.37326    1.000
    N1663    N        0.30275    0.17922    0.39349    1.000
    Si1664   Si       0.33850    0.16109    0.41371    1.000
    N1665    N        0.30767    0.14805    0.44599    1.000
    Si1666   Si       0.27524    0.16661    0.42784    1.000
    Si1667   Si       0.25632    0.14536    0.59596    1.000
    Si1668   Si       0.33571    0.16859    0.53730    1.000
    N1669    N        0.25677    0.15389    0.55307    1.000
    Si1670   Si       0.35814    0.13938    0.58406    1.000
    N1671    N        0.34486    0.18085    0.57827    1.000
    N1672    N        0.29382    0.14606    0.61776    1.000
    N1673    N        0.33602    0.12479    0.54803    1.000
    N1674    N        0.36601    0.17202    0.50801    1.000
    Si1675   Si       0.39453    0.14360    0.52250    1.000
    N1676    N        0.43475    0.15494    0.51188    1.000
    N1677    N        0.39742    0.13903    0.56712    1.000
    N1678    N        0.46978    0.17934    0.56655    1.000
    Si1679   Si       0.48730    0.13945    0.56061    1.000
    Si1680   Si       0.26457    0.17311    0.71803    1.000
    N1681    N        0.32631    0.15837    0.67466    1.000
    N1682    N        0.28075    0.13314    0.72345    1.000
    Si1683   Si       0.29867    0.17853    0.64572    1.000
    N1684    N        0.26392    0.17872    0.67345    1.000
    N1685    N        0.39145    0.14090    0.69236    1.000
    Si1686   Si       0.36723    0.17044    0.67202    1.000
    N1687    N        0.44812    0.14185    0.73266    1.000
    Si1688   Si       0.41459    0.16913    0.72291    1.000
    N1689    N        0.43817    0.13580    0.62776    1.000
    Si1690   Si       0.46667    0.15631    0.65300    1.000
    N1691    N        0.48945    0.13043    0.67752    1.000
    N1692    N        0.32688    0.14717    0.78238    1.000
    N1693    N        0.26481    0.13753    0.82574    1.000
    N1694    N        0.31996    0.17515    0.84542    1.000
    Si1695   Si       0.30616    0.14029    0.82120    1.000
    Si1696   Si       0.35979    0.17415    0.78685    1.000
    N1697    N        0.39466    0.16397    0.76130    1.000
    Si1698   Si       0.41816    0.15882    0.79659    1.000
    N1699    N        0.44545    0.16646    0.85973    1.000
    N1700    N        0.38456    0.16703    0.82350    1.000
    Si1701   Si       0.40281    0.17122    0.86368    1.000
    Si1702   Si       0.33804    0.14487    0.87353    1.000
    N1703    N        0.26968    0.14855    0.97378    1.000
    Si1704   Si       0.30409    0.17396    0.92807    1.000
    N1705    N        0.30874    0.13701    0.90637    1.000
    Si1706   Si       0.35870    0.17343    0.98852    1.000
    Si1707   Si       0.23901    0.17120    0.95489    1.000
    Si1708   Si       0.46362    0.13498    0.95968    1.000
    Si1709   Si       0.45304    0.13147    0.88503    1.000
    N1710    N        0.37880    0.14618    0.89029    1.000
    N1711    N        0.43796    0.13480    0.92471    1.000
    N1712    N        0.38147    0.13803    0.97137    1.000
    N1713    N        0.26250    0.18628    0.92366    1.000
    N1714    N        0.32207    0.18322    0.96746    1.000
    N1715    N        0.35286    0.22738    0.05717    1.000
    N1716    N        0.28721    0.22618    0.07958    1.000
    N1717    N        0.29576    0.22920    0.01015    1.000
    Si1718   Si       0.25868    0.19900    0.05986    1.000
    Si1719   Si       0.29681    0.21372    0.12060    1.000
    Si1720   Si       0.36051    0.21023    0.09614    1.000
    N1721    N        0.37645    0.20108    0.19208    1.000
    N1722    N        0.47058    0.20728    0.02773    1.000
    Si1723   Si       0.38658    0.22236    0.03006    1.000
    N1724    N        0.45945    0.20390    0.09431    1.000
    N1725    N        0.39981    0.22855    0.10329    1.000
    N1726    N        0.40630    0.18796    0.04391    1.000
    N1727    N        0.44760    0.20330    0.20138    1.000
    Si1728   Si       0.36584    0.22648    0.22550    1.000
    N1729    N        0.25002    0.20918    0.22061    1.000
    Si1730   Si       0.33699    0.21418    0.17600    1.000
    N1731    N        0.33878    0.22201    0.13360    1.000
    N1732    N        0.27303    0.22423    0.15521    1.000
    Si1733   Si       0.26799    0.19237    0.18481    1.000
    Si1734   Si       0.47593    0.23064    0.18290    1.000
    Si1735   Si       0.43058    0.20952    0.12553    1.000
    Si1736   Si       0.48282    0.24153    0.11773    1.000
    Si1737   Si       0.48323    0.24132    0.05299    1.000
    N1738    N        0.44651    0.24311    0.14915    1.000
    N1739    N        0.26094    0.21472    0.29088    1.000
    Si1740   Si       0.35475    0.21158    0.29320    1.000
    Si1741   Si       0.25270    0.20332    0.33230    1.000
    N1742    N        0.26753    0.22894    0.36417    1.000
    N1743    N        0.33989    0.20475    0.25389    1.000
    N1744    N        0.33413    0.19112    0.32566    1.000
    N1745    N        0.39427    0.19522    0.30072    1.000
    Si1746   Si       0.42590    0.22573    0.28306    1.000
    N1747    N        0.38629    0.21510    0.36695    1.000
    N1748    N        0.48356    0.21509    0.33368    1.000
    N1749    N        0.39964    0.23734    0.24894    1.000
    Si1750   Si       0.48742    0.19032    0.29603    1.000
    Si1751   Si       0.28830    0.22091    0.40067    1.000
    N1752    N        0.33825    0.23423    0.47592    1.000
    N1753    N        0.26646    0.21005    0.43836    1.000
    N1754    N        0.36423    0.19150    0.43070    1.000
    Si1755   Si       0.36738    0.20145    0.47396    1.000
    Si1756   Si       0.39625    0.21198    0.40977    1.000
    N1757    N        0.40937    0.21210    0.47580    1.000
    Si1758   Si       0.44614    0.19469    0.46082    1.000
    N1759    N        0.47585    0.22187    0.44182    1.000
    N1760    N        0.43007    0.18494    0.41777    1.000
    N1761    N        0.44950    0.18735    0.27341    1.000
    N1762    N        0.25525    0.22453    0.56133    1.000
    Si1763   Si       0.30624    0.23173    0.50478    1.000
    Si1764   Si       0.26365    0.19284    0.53575    1.000
    N1765    N        0.30408    0.19100    0.51908    1.000
    Si1766   Si       0.35501    0.21218    0.60687    1.000
    N1767    N        0.42024    0.22190    0.54182    1.000
    N1768    N        0.43941    0.22373    0.61093    1.000
    Si1769   Si       0.47660    0.20424    0.59959    1.000
    Si1770   Si       0.44766    0.19007    0.53117    1.000
    N1771    N        0.47617    0.20416    0.50272    1.000
    N1772    N        0.48426    0.24496    0.68362    1.000
    N1773    N        0.31656    0.21537    0.62871    1.000
    N1774    N        0.28291    0.20636    0.73839    1.000
    N1775    N        0.44529    0.18779    0.67391    1.000
    Si1776   Si       0.42072    0.21425    0.64802    1.000
    N1777    N        0.37859    0.19960    0.70521    1.000
    Si1778   Si       0.46910    0.20929    0.70385    1.000
    Si1779   Si       0.40186    0.23611    0.71186    1.000
    N1780    N        0.38086    0.19617    0.63840    1.000
    N1781    N        0.43518    0.21276    0.73046    1.000
    N1782    N        0.34583    0.21335    0.77715    1.000
    Si1783   Si       0.30420    0.22631    0.76958    1.000
    Si1784   Si       0.24707    0.22630    0.83485    1.000
    N1785    N        0.27866    0.22277    0.80332    1.000
    Si1786   Si       0.30986    0.21307    0.86248    1.000
    N1787    N        0.27045    0.22686    0.87271    1.000
    Si1788   Si       0.44838    0.22291    0.77185    1.000
    N1789    N        0.46933    0.23084    0.84415    1.000
    Si1790   Si       0.47382    0.18816    0.83366    1.000
    N1791    N        0.40989    0.24092    0.78743    1.000
    N1792    N        0.45079    0.18732    0.79538    1.000
    Si1793   Si       0.25478    0.22761    0.91357    1.000
    N1794    N        0.32779    0.20225    0.90202    1.000
    N1795    N        0.24184    0.20278    0.98564    1.000
    N1796    N        0.40007    0.21127    0.87962    1.000
    Si1797   Si       0.40406    0.22689    0.95626    1.000
    N1798    N        0.43598    0.19466    0.96063    1.000
    Si1799   Si       0.36183    0.22830    0.89406    1.000
    N1800    N        0.37931    0.21281    0.98834    1.000
    Si1801   Si       0.47247    0.20152    0.98414    1.000
    Si1802   Si       0.43489    0.23897    0.87190    1.000
    Si1803   Si       0.26350    0.24175    0.98367    1.000
    N1804    N        0.37373    0.24611    0.93193    1.000
    N1805    N        0.31865    0.28962    0.04617    1.000
    Si1806   Si       0.25240    0.27906    0.11307    1.000
    N1807    N        0.29376    0.28955    0.11693    1.000
    N1808    N        0.24975    0.28912    0.06957    1.000
    Si1809   Si       0.31296    0.24617    0.04771    1.000
    N1810    N        0.24233    0.27529    0.00191    1.000
    N1811    N        0.45842    0.26245    0.08520    1.000
    N1812    N        0.41081    0.25848    0.03612    1.000
    Si1813   Si       0.41523    0.26043    0.07848    1.000
    Si1814   Si       0.43555    0.27999    0.00713    1.000
    N1815    N        0.47525    0.27545    0.02612    1.000
    N1816    N        0.40339    0.27697    0.19434    1.000
    N1817    N        0.46347    0.27516    0.20542    1.000
    Si1818   Si       0.31017    0.28183    0.22523    1.000
    N1819    N        0.33676    0.25016    0.20201    1.000
    Si1820   Si       0.36065    0.28808    0.19116    1.000
    N1821    N        0.28326    0.29794    0.19521    1.000
    Si1822   Si       0.42502    0.27006    0.23104    1.000
    Si1823   Si       0.49046    0.26407    0.23650    1.000
    Si1824   Si       0.43952    0.27975    0.17024    1.000
    N1825    N        0.29942    0.27499    0.26874    1.000
    Si1826   Si       0.26535    0.27026    0.35187    1.000
    Si1827   Si       0.32927    0.28329    0.30180    1.000
    Si1828   Si       0.25948    0.25900    0.28061    1.000
    N1829    N        0.30546    0.27950    0.33946    1.000
    N1830    N        0.35829    0.25112    0.30944    1.000
    N1831    N        0.42610    0.25432    0.32122    1.000
    Si1832   Si       0.44032    0.29272    0.29301    1.000
    Si1833   Si       0.46592    0.25449    0.34113    1.000
    N1834    N        0.45650    0.25667    0.26372    1.000
    N1835    N        0.48166    0.28664    0.31586    1.000
    Si1836   Si       0.38774    0.25191    0.34188    1.000
    N1837    N        0.37295    0.28192    0.37072    1.000
    N1838    N        0.41107    0.25414    0.41929    1.000
    Si1839   Si       0.32964    0.28065    0.37450    1.000
    N1840    N        0.30481    0.29406    0.47265    1.000
    Si1841   Si       0.32816    0.26506    0.44798    1.000
    N1842    N        0.31725    0.25306    0.40737    1.000
    N1843    N        0.35849    0.29686    0.44075    1.000
    N1844    N        0.26734    0.24408    0.49375    1.000
    N1845    N        0.47248    0.26145    0.38251    1.000
    Si1846   Si       0.45505    0.25510    0.42197    1.000
    N1847    N        0.45381    0.26707    0.49186    1.000
    Si1848   Si       0.38978    0.29250    0.41013    1.000
    N1849    N        0.47004    0.29401    0.43588    1.000
    Si1850   Si       0.27896    0.26124    0.56436    1.000
    N1851    N        0.28082    0.27823    0.60350    1.000
    N1852    N        0.31641    0.24985    0.54389    1.000
    Si1853   Si       0.35541    0.26807    0.54679    1.000
    N1854    N        0.26981    0.29781    0.53776    1.000
    Si1855   Si       0.36320    0.29032    0.60435    1.000
    Si1856   Si       0.41669    0.24542    0.50388    1.000
    N1857    N        0.37392    0.24858    0.58598    1.000
    N1858    N        0.38589    0.27498    0.51724    1.000
    N1859    N        0.44360    0.27816    0.57270    1.000
    Si1860   Si       0.48837    0.27284    0.56773    1.000
    N1861    N        0.32643    0.30383    0.70782    1.000
    N1862    N        0.24807    0.29162    0.70870    1.000
    N1863    N        0.28141    0.25980    0.66750    1.000
    Si1864   Si       0.30660    0.25741    0.63342    1.000
    N1865    N        0.34192    0.28286    0.63989    1.000
    Si1866   Si       0.28781    0.29690    0.69264    1.000
    N1867    N        0.37583    0.26321    0.73359    1.000
    N1868    N        0.43619    0.28839    0.72298    1.000
    N1869    N        0.41643    0.24944    0.67421    1.000
    Si1870   Si       0.45294    0.27464    0.68485    1.000
    Si1871   Si       0.41684    0.24239    0.57786    1.000
    Si1872   Si       0.26782    0.28860    0.49369    1.000
    Si1873   Si       0.33727    0.28442    0.83864    1.000
    N1874    N        0.31045    0.26904    0.76638    1.000
    N1875    N        0.29597    0.29569    0.82752    1.000
    Si1876   Si       0.28070    0.29576    0.78589    1.000
    N1877    N        0.34148    0.24480    0.86014    1.000
    N1878    N        0.23847    0.29190    0.77955    1.000
    Si1879   Si       0.33276    0.30517    0.75140    1.000
    N1880    N        0.36439    0.27800    0.80666    1.000
    Si1881   Si       0.36794    0.24901    0.77399    1.000
    Si1882   Si       0.45939    0.29425    0.76065    1.000
    Si1883   Si       0.40766    0.27459    0.81314    1.000
    N1884    N        0.41332    0.27333    0.85602    1.000
    N1885    N        0.47694    0.25479    0.76474    1.000
    N1886    N        0.43298    0.25635    0.97151    1.000
    N1887    N        0.35780    0.29088    0.98453    1.000
    N1888    N        0.27354    0.25468    0.94328    1.000
    N1889    N        0.25818    0.29337    0.89014    1.000
    Si1890   Si       0.28009    0.29585    0.92739    1.000
    Si1891   Si       0.36107    0.28654    0.94231    1.000
    N1892    N        0.45451    0.24581    0.90978    1.000
    Si1893   Si       0.46846    0.25727    0.94793    1.000
    N1894    N        0.32397    0.30395    0.92355    1.000
    N1895    N        0.34558    0.33316    0.09378    1.000
    N1896    N        0.27758    0.34576    0.07743    1.000
    Si1897   Si       0.34104    0.31233    0.01782    1.000
    Si1898   Si       0.30794    0.31339    0.08298    1.000
    N1899    N        0.24803    0.34091    0.01773    1.000
    N1900    N        0.31970    0.34748    0.00125    1.000
    Si1901   Si       0.24047    0.33075    0.05963    1.000
    N1902    N        0.47017    0.32717    0.07611    1.000
    Si1903   Si       0.38480    0.33136    0.07634    1.000
    N1904    N        0.37821    0.33100    0.03377    1.000
    Si1905   Si       0.40978    0.34588    0.00614    1.000
    Si1906   Si       0.46208    0.30209    0.11045    1.000
    N1907    N        0.40748    0.29927    0.09428    1.000
    Si1908   Si       0.34602    0.34630    0.13597    1.000
    N1909    N        0.34559    0.31073    0.16022    1.000
    N1910    N        0.30102    0.35015    0.14120    1.000
    Si1911   Si       0.30180    0.30903    0.15483    1.000
    N1912    N        0.34770    0.30652    0.22769    1.000
    N1913    N        0.23995    0.31033    0.14432    1.000
    Si1914   Si       0.46204    0.35062    0.17256    1.000
    N1915    N        0.44581    0.31776    0.14955    1.000
    N1916    N        0.35047    0.32049    0.29231    1.000
    Si1917   Si       0.37653    0.32423    0.25610    1.000
    N1918    N        0.43873    0.33253    0.31478    1.000
    Si1919   Si       0.48342    0.33049    0.33037    1.000
    N1920    N        0.25073    0.30423    0.37349    1.000
    N1921    N        0.32933    0.35759    0.44434    1.000
    Si1922   Si       0.27825    0.33573    0.38511    1.000
    Si1923   Si       0.35013    0.34191    0.40680    1.000
    N1924    N        0.31799    0.31715    0.39238    1.000
    Si1925   Si       0.33949    0.32293    0.47036    1.000
    N1926    N        0.26122    0.35114    0.42217    1.000
    Si1927   Si       0.46107    0.30835    0.47651    1.000
    N1928    N        0.48301    0.33230    0.37414    1.000
    N1929    N        0.39369    0.33462    0.40662    1.000
    N1930    N        0.42177    0.33099    0.47751    1.000
    N1931    N        0.41460    0.30347    0.25924    1.000
    Si1932   Si       0.26530    0.33432    0.55864    1.000
    N1933    N        0.25711    0.34400    0.59978    1.000
    N1934    N        0.35800    0.33465    0.50788    1.000
    Si1935   Si       0.34372    0.34439    0.54724    1.000
    N1936    N        0.34748    0.30641    0.56879    1.000
    N1937    N        0.30109    0.35931    0.55464    1.000
    Si1938   Si       0.39776    0.31725    0.51030    1.000
    N1939    N        0.41836    0.33677    0.54539    1.000
    Si1940   Si       0.42794    0.31828    0.58179    1.000
    N1941    N        0.45190    0.34602    0.60502    1.000
    N1942    N        0.40090    0.30946    0.61517    1.000
    Si1943   Si       0.26033    0.30855    0.62768    1.000
    N1944    N        0.28708    0.32627    0.65876    1.000
    Si1945   Si       0.34986    0.31234    0.67066    1.000
    N1946    N        0.34495    0.35587    0.67003    1.000
    N1947    N        0.45760    0.30843    0.65808    1.000
    Si1948   Si       0.48432    0.32230    0.62843    1.000
    N1949    N        0.39190    0.31983    0.68446    1.000
    Si1950   Si       0.41896    0.33005    0.65108    1.000
    Si1951   Si       0.39613    0.30261    0.72504    1.000
    Si1952   Si       0.27230    0.31744    0.85676    1.000
    N1953    N        0.29936    0.33045    0.76637    1.000
    N1954    N        0.35716    0.31379    0.86457    1.000
    N1955    N        0.38479    0.35742    0.97327    1.000
    Si1956   Si       0.27738    0.36393    0.74992    1.000
    Si1957   Si       0.43347    0.34244    0.81269    1.000
    N1958    N        0.42355    0.33641    0.85495    1.000
    N1959    N        0.47558    0.34981    0.81915    1.000
    N1960    N        0.37070    0.32743    0.75373    1.000
    N1961    N        0.48730    0.32697    0.75431    1.000
    N1962    N        0.29317    0.34808    0.87925    1.000
    Si1963   Si       0.33246    0.33557    0.89533    1.000
    N1964    N        0.25724    0.32750    0.94900    1.000
    N1965    N        0.43850    0.31768    0.99036    1.000
    Si1966   Si       0.39252    0.34956    0.93249    1.000
    Si1967   Si       0.47797    0.32839    0.97290    1.000
    Si1968   Si       0.39949    0.30915    0.87652    1.000
    N1969    N        0.39360    0.30726    0.92058    1.000
    N1970    N        0.43313    0.30403    0.79256    1.000
    N1971    N        0.28373    0.40615    0.02773    1.000
    N1972    N        0.28857    0.41028    0.10435    1.000
    Si1973   Si       0.27936    0.36688    0.00656    1.000
    Si1974   Si       0.27623    0.36904    0.11269    1.000
    N1975    N        0.35862    0.40466    0.01742    1.000
    N1976    N        0.46368    0.40164    0.07752    1.000
    Si1977   Si       0.39285    0.39929    0.11191    1.000
    N1978    N        0.43688    0.37203    0.02880    1.000
    Si1979   Si       0.45106    0.41415    0.03854    1.000
    N1980    N        0.40595    0.36694    0.08776    1.000
    Si1981   Si       0.44603    0.36166    0.07073    1.000
    N1982    N        0.48553    0.41792    0.01316    1.000
    Si1983   Si       0.46759    0.41074    0.11873    1.000
    N1984    N        0.42617    0.41523    0.13587    1.000
    N1985    N        0.37269    0.37793    0.14450    1.000
    Si1986   Si       0.40040    0.39402    0.17175    1.000
    Si1987   Si       0.38725    0.40961    0.24018    1.000
    N1988    N        0.42708    0.36778    0.18995    1.000
    N1989    N        0.48151    0.37567    0.14217    1.000
    Si1990   Si       0.27361    0.40289    0.27110    1.000
    Si1991   Si       0.32746    0.39069    0.35603    1.000
    N1992    N        0.35263    0.38904    0.31986    1.000
    Si1993   Si       0.25135    0.38625    0.34091    1.000
    N1994    N        0.30168    0.37063    0.26786    1.000
    N1995    N        0.28871    0.36983    0.35915    1.000
    Si1996   Si       0.34066    0.36234    0.28450    1.000
    N1997    N        0.24169    0.38754    0.29771    1.000
    N1998    N        0.41918    0.40723    0.30045    1.000
    Si1999   Si       0.43326    0.37464    0.32357    1.000
    N2000    N        0.47813    0.37686    0.33010    1.000
    N2001    N        0.37351    0.36854    0.25606    1.000
    N2002    N        0.42846    0.38027    0.36637    1.000
    Si2003   Si       0.28919    0.37042    0.44572    1.000
    N2004    N        0.35694    0.38065    0.38613    1.000
    N2005    N        0.28587    0.41211    0.45318    1.000
    Si2006   Si       0.29748    0.39994    0.49463    1.000
    N2007    N        0.48293    0.40527    0.40302    1.000
    N2008    N        0.27614    0.36210    0.48884    1.000
    Si2009   Si       0.47086    0.37269    0.37501    1.000
    N2010    N        0.40771    0.39643    0.43649    1.000
    Si2011   Si       0.42503    0.37313    0.47016    1.000
    Si2012   Si       0.39906    0.37845    0.39763    1.000
    N2013    N        0.46763    0.38435    0.46828    1.000
    Si2014   Si       0.29032    0.40066    0.56565    1.000
    N2015    N        0.25420    0.41338    0.59123    1.000
    Si2016   Si       0.25093    0.38252    0.62196    1.000
    Si2017   Si       0.36334    0.41781    0.57865    1.000
    N2018    N        0.36793    0.37720    0.56295    1.000
    Si2019   Si       0.46737    0.38528    0.59579    1.000
    Si2020   Si       0.40916    0.38013    0.54735    1.000
    N2021    N        0.44371    0.40204    0.56199    1.000
    N2022    N        0.40647    0.39202    0.50562    1.000
    Si2023   Si       0.30148    0.36704    0.67303    1.000
    N2024    N        0.28882    0.39455    0.64317    1.000
    N2025    N        0.28180    0.38181    0.70967    1.000
    Si2026   Si       0.41883    0.41168    0.64323    1.000
    N2027    N        0.45959    0.41014    0.62975    1.000
    N2028    N        0.41445    0.37408    0.66240    1.000
    N2029    N        0.38608    0.38844    0.72636    1.000
    Si2030   Si       0.38348    0.36424    0.68873    1.000
    N2031    N        0.33966    0.40819    0.49964    1.000
    N2032    N        0.25949    0.39733    0.83792    1.000
    N2033    N        0.27865    0.40290    0.76808    1.000
    N2034    N        0.35357    0.40608    0.77494    1.000
    Si2035   Si       0.40606    0.40962    0.81877    1.000
    N2036    N        0.42522    0.40342    0.85805    1.000
    N2037    N        0.40937    0.37371    0.79712    1.000
    Si2038   Si       0.37811    0.37006    0.76531    1.000
    N2039    N        0.47557    0.39660    0.76198    1.000
    Si2040   Si       0.27772    0.38961    0.87699    1.000
    N2041    N        0.35971    0.36662    0.90739    1.000
    N2042    N        0.24462    0.39319    0.90332    1.000
    N2043    N        0.26600    0.39192    0.97051    1.000
    Si2044   Si       0.34291    0.40739    0.91267    1.000
    N2045    N        0.33838    0.40869    0.95575    1.000
    Si2046   Si       0.34715    0.37669    0.98512    1.000
    Si2047   Si       0.24724    0.36813    0.93932    1.000
    N2048    N        0.30832    0.41671    0.88682    1.000
    Si2049   Si       0.47191    0.40344    0.93051    1.000
    Si2050   Si       0.41278    0.41072    0.89974    1.000
    N2051    N        0.48314    0.39184    0.88908    1.000
    Si2052   Si       0.44758    0.36785    0.87504    1.000
    N2053    N        0.42713    0.36971    0.91382    1.000
    N2054    N        0.48424    0.37132    0.96068    1.000
    N2055    N        0.28501    0.46686    0.06422    1.000
    N2056    N        0.34939    0.46488    0.03002    1.000
    Si2057   Si       0.27236    0.42400    0.06628    1.000
    Si2058   Si       0.35795    0.46361    0.11916    1.000
    N2059    N        0.36937    0.43001    0.09443    1.000
    N2060    N        0.41370    0.43726    0.03630    1.000
    Si2061   Si       0.37308    0.43084    0.04989    1.000
    Si2062   Si       0.40887    0.46889    0.00667    1.000
    N2063    N        0.44168    0.47269    0.10063    1.000
    N2064    N        0.32881    0.44992    0.15109    1.000
    N2065    N        0.31660    0.43727    0.21994    1.000
    Si2066   Si       0.28982    0.43960    0.13544    1.000
    Si2067   Si       0.34708    0.44780    0.19046    1.000
    Si2068   Si       0.27585    0.43992    0.20681    1.000
    N2069    N        0.26461    0.42730    0.16847    1.000
    N2070    N        0.25256    0.41991    0.23942    1.000
    N2071    N        0.47777    0.47461    0.24216    1.000
    N2072    N        0.38872    0.47307    0.14901    1.000
    Si2073   Si       0.44521    0.46781    0.21633    1.000
    N2074    N        0.42482    0.43367    0.23990    1.000
    N2075    N        0.45408    0.46387    0.17421    1.000
    Si2076   Si       0.42897    0.45858    0.13919    1.000
    N2077    N        0.27198    0.47867    0.12736    1.000
    N2078    N        0.37561    0.41774    0.19821    1.000
    Si2079   Si       0.28959    0.45138    0.33258    1.000
    Si2080   Si       0.32289    0.45019    0.26184    1.000
    N2081    N        0.32326    0.43423    0.35772    1.000
    N2082    N        0.29404    0.43516    0.29154    1.000
    N2083    N        0.25694    0.42880    0.35001    1.000
    N2084    N        0.36329    0.43530    0.26949    1.000
    N2085    N        0.38413    0.45077    0.34082    1.000
    Si2086   Si       0.44607    0.43562    0.28069    1.000
    N2087    N        0.44212    0.47571    0.29991    1.000
    Si2088   Si       0.42127    0.47377    0.33888    1.000
    N2089    N        0.45092    0.45952    0.36896    1.000
    N2090    N        0.48879    0.42563    0.28285    1.000
    Si2091   Si       0.37826    0.42248    0.30869    1.000
    Si2092   Si       0.35833    0.45477    0.37484    1.000
    N2093    N        0.25435    0.46693    0.48669    1.000
    Si2094   Si       0.26962    0.45167    0.44564    1.000
    N2095    N        0.39138    0.45683    0.48122    1.000
    N2096    N        0.44503    0.45297    0.44230    1.000
    Si2097   Si       0.40242    0.43929    0.44123    1.000
    N2098    N        0.37084    0.45078    0.41645    1.000
    Si2099   Si       0.47174    0.41899    0.44255    1.000
    Si2100   Si       0.25297    0.45684    0.59913    1.000
    Si2101   Si       0.25051    0.44816    0.52606    1.000
    N2102    N        0.25210    0.47684    0.56057    1.000
    N2103    N        0.27931    0.41813    0.52795    1.000
    N2104    N        0.32154    0.42196    0.58695    1.000
    N2105    N        0.38395    0.44046    0.54715    1.000
    Si2106   Si       0.45288    0.44467    0.55475    1.000
    N2107    N        0.46253    0.45250    0.51219    1.000
    Si2108   Si       0.37821    0.42508    0.50677    1.000
    N2109    N        0.43241    0.47776    0.57447    1.000
    N2110    N        0.38783    0.42395    0.61402    1.000
    N2111    N        0.46996    0.43236    0.69538    1.000
    N2112    N        0.28197    0.46567    0.62829    1.000
    Si2113   Si       0.30953    0.42951    0.62738    1.000
    Si2114   Si       0.33291    0.47228    0.68628    1.000
    N2115    N        0.25736    0.45134    0.72311    1.000
    N2116    N        0.32918    0.44095    0.71933    1.000
    N2117    N        0.34097    0.44414    0.65414    1.000
    Si2118   Si       0.29044    0.42093    0.72821    1.000
    N2119    N        0.48119    0.47458    0.63766    1.000
    N2120    N        0.40477    0.45531    0.73106    1.000
    N2121    N        0.41369    0.44999    0.66391    1.000
    Si2122   Si       0.43454    0.46084    0.70069    1.000
    Si2123   Si       0.48274    0.43566    0.65464    1.000
    Si2124   Si       0.37907    0.46224    0.63995    1.000
    Si2125   Si       0.36687    0.42833    0.73853    1.000
    N2126    N        0.30318    0.44481    0.81917    1.000
    Si2127   Si       0.34195    0.43855    0.80082    1.000
    Si2128   Si       0.30372    0.45112    0.86133    1.000
    N2129    N        0.35817    0.47019    0.77530    1.000
    Si2130   Si       0.26840    0.42265    0.80474    1.000
    N2131    N        0.37167    0.43124    0.83162    1.000
    N2132    N        0.43134    0.43826    0.79942    1.000
    Si2133   Si       0.47503    0.43989    0.79607    1.000
    Si2134   Si       0.37458    0.45947    0.86468    1.000
    N2135    N        0.48412    0.45903    0.75756    1.000
    N2136    N        0.26556    0.46866    0.87108    1.000
    N2137    N        0.30372    0.45777    0.97945    1.000
    Si2138   Si       0.34665    0.44182    0.98922    1.000
    Si2139   Si       0.27190    0.42846    0.99276    1.000
    N2140    N        0.43725    0.42967    0.92900    1.000
    N2141    N        0.44547    0.46824    0.98343    1.000
    N2142    N        0.38305    0.46154    0.97291    1.000
    N2143    N        0.37658    0.43290    0.89969    1.000
    Si2144   Si       0.42130    0.46549    0.94863    1.000
    N2145    N        0.34820    0.49478    0.08963    1.000
    N2146    N        0.30512    0.52463    0.04401    1.000
    Si2147   Si       0.32144    0.48709    0.05601    1.000
    Si2148   Si       0.25533    0.48962    0.08772    1.000
    N2149    N        0.25269    0.53091    0.08963    1.000
    N2150    N        0.41062    0.50089    0.03443    1.000
    Si2151   Si       0.43080    0.50441    0.07218    1.000
    N2152    N        0.47203    0.51347    0.06016    1.000
    Si2153   Si       0.48486    0.48573    0.09360    1.000
    N2154    N        0.30605    0.53199    0.16526    1.000
    N2155    N        0.35868    0.48794    0.20807    1.000
    Si2156   Si       0.27447    0.50212    0.16387    1.000
    Si2157   Si       0.34458    0.51352    0.24141    1.000
    N2158    N        0.26605    0.48216    0.20316    1.000
    N2159    N        0.49051    0.51014    0.13036    1.000
    Si2160   Si       0.41555    0.53580    0.24172    1.000
    N2161    N        0.42002    0.50271    0.21350    1.000
    Si2162   Si       0.39058    0.50002    0.18218    1.000
    N2163    N        0.40932    0.53736    0.09057    1.000
    Si2164   Si       0.36707    0.53584    0.08141    1.000
    N2165    N        0.47578    0.53912    0.99489    1.000
    N2166    N        0.27770    0.49467    0.32931    1.000
    N2167    N        0.31143    0.49227    0.25888    1.000
    Si2168   Si       0.30553    0.52824    0.32825    1.000
    Si2169   Si       0.27683    0.52095    0.25958    1.000
    N2170    N        0.34755    0.53226    0.32693    1.000
    Si2171   Si       0.36831    0.52570    0.36554    1.000
    N2172    N        0.38014    0.52727    0.26530    1.000
    N2173    N        0.40763    0.51042    0.35708    1.000
    Si2174   Si       0.47259    0.49969    0.27867    1.000
    N2175    N        0.44900    0.53692    0.26976    1.000
    N2176    N        0.34531    0.49580    0.38579    1.000
    Si2177   Si       0.34373    0.48497    0.42749    1.000
    N2178    N        0.36099    0.51372    0.45333    1.000
    Si2179   Si       0.44703    0.47780    0.48098    1.000
    Si2180   Si       0.45730    0.48134    0.40807    1.000
    N2181    N        0.30357    0.47627    0.43887    1.000
    N2182    N        0.48004    0.50215    0.46151    1.000
    N2183    N        0.45525    0.52347    0.40310    1.000
    Si2184   Si       0.38252    0.49859    0.49002    1.000
    N2185    N        0.28708    0.52981    0.53873    1.000
    Si2186   Si       0.24640    0.51923    0.55160    1.000
    Si2187   Si       0.33043    0.53177    0.53483    1.000
    N2188    N        0.36190    0.50301    0.53051    1.000
    N2189    N        0.31411    0.52925    0.62273    1.000
    N2190    N        0.37207    0.48701    0.60171    1.000
    Si2191   Si       0.44006    0.51609    0.59380    1.000
    N2192    N        0.48334    0.52130    0.58289    1.000
    Si2193   Si       0.35771    0.52007    0.62836    1.000
    Si2194   Si       0.28426    0.50565    0.64677    1.000
    Si2195   Si       0.26989    0.49437    0.72171    1.000
    N2196    N        0.29718    0.49627    0.68606    1.000
    N2197    N        0.24592    0.52759    0.64462    1.000
    N2198    N        0.36322    0.50028    0.66642    1.000
    N2199    N        0.36624    0.51657    0.73338    1.000
    Si2200   Si       0.36418    0.53433    0.69331    1.000
    N2201    N        0.45959    0.49790    0.70094    1.000
    Si2202   Si       0.47397    0.51105    0.66316    1.000
    N2203    N        0.44320    0.52901    0.63718    1.000
    Si2204   Si       0.38771    0.48434    0.56060    1.000
    N2205    N        0.42400    0.51081    0.49774    1.000
    N2206    N        0.27030    0.51789    0.82445    1.000
    Si2207   Si       0.33526    0.50545    0.76222    1.000
    N2208    N        0.29324    0.50785    0.75578    1.000
    Si2209   Si       0.24572    0.48505    0.83425    1.000
    Si2210   Si       0.29201    0.53500    0.78873    1.000
    N2211    N        0.33681    0.47877    0.86822    1.000
    N2212    N        0.41955    0.50547    0.78626    1.000
    Si2213   Si       0.39333    0.48895    0.75455    1.000
    N2214    N        0.40590    0.48722    0.85445    1.000
    N2215    N        0.47247    0.48009    0.82181    1.000
    Si2216   Si       0.42833    0.47751    0.81820    1.000
    N2217    N        0.24241    0.52889    0.89403    1.000
    N2218    N        0.29913    0.49739    0.92137    1.000
    N2219    N        0.26658    0.51167    0.98485    1.000
    Si2220   Si       0.25933    0.49117    0.90775    1.000
    Si2221   Si       0.30386    0.50011    0.96422    1.000
    Si2222   Si       0.32891    0.51283    0.89258    1.000
    N2223    N        0.33382    0.52806    0.97392    1.000
    Si2224   Si       0.40687    0.51698    0.88883    1.000
    Si2225   Si       0.46829    0.51853    0.91852    1.000
    N2226    N        0.36807    0.52191    0.91010    1.000
    N2227    N        0.48027    0.52084    0.87757    1.000
    N2228    N        0.42940    0.49774    0.92073    1.000
    N2229    N        0.34309    0.56160    0.10566    1.000
    Si2230   Si       0.27162    0.54970    0.05655    1.000
    N2231    N        0.28468    0.58716    0.07370    1.000
    N2232    N        0.24460    0.56507    0.02440    1.000
    Si2233   Si       0.33047    0.54556    0.01425    1.000
    N2234    N        0.30435    0.57966    0.99970    1.000
    N2235    N        0.36620    0.54989    0.03610    1.000
    Si2236   Si       0.43627    0.57301    0.08530    1.000
    N2237    N        0.43679    0.56838    0.04276    1.000
    N2238    N        0.47859    0.57471    0.09578    1.000
    Si2239   Si       0.47702    0.54929    0.03688    1.000
    Si2240   Si       0.40483    0.54233    0.02096    1.000
    N2241    N        0.46430    0.58354    0.16389    1.000
    Si2242   Si       0.38343    0.57274    0.18750    1.000
    N2243    N        0.34045    0.58096    0.18020    1.000
    Si2244   Si       0.25462    0.59213    0.22459    1.000
    Si2245   Si       0.34145    0.55170    0.14701    1.000
    N2246    N        0.26820    0.55032    0.22751    1.000
    N2247    N        0.32996    0.55265    0.23396    1.000
    Si2248   Si       0.30425    0.56106    0.19881    1.000
    N2249    N        0.41084    0.57224    0.22008    1.000
    N2250    N        0.37969    0.53753    0.16471    1.000
    N2251    N        0.29338    0.55479    0.36290    1.000
    Si2252   Si       0.31182    0.57726    0.26479    1.000
    N2253    N        0.34879    0.59096    0.28591    1.000
    N2254    N        0.29306    0.54788    0.29146    1.000
    Si2255   Si       0.25261    0.56740    0.36721    1.000
    Si2256   Si       0.37131    0.55549    0.30040    1.000
    N2257    N        0.40748    0.56676    0.32122    1.000
    Si2258   Si       0.44891    0.56881    0.29813    1.000
    N2259    N        0.46459    0.54822    0.33649    1.000
    Si2260   Si       0.43648    0.54120    0.36828    1.000
    Si2261   Si       0.32205    0.57302    0.38821    1.000
    N2262    N        0.31180    0.56221    0.42830    1.000
    Si2263   Si       0.34374    0.55270    0.45740    1.000
    Si2264   Si       0.26966    0.56843    0.43957    1.000
    N2265    N        0.24463    0.55454    0.40750    1.000
    N2266    N        0.26496    0.54077    0.47291    1.000
    N2267    N        0.36431    0.56544    0.38484    1.000
    Si2268   Si       0.40347    0.59902    0.35001    1.000
    Si2269   Si       0.45481    0.58930    0.48660    1.000
    N2270    N        0.42569    0.58156    0.38457    1.000
    Si2271   Si       0.38912    0.58964    0.41176    1.000
    Si2272   Si       0.47813    0.53919    0.43598    1.000
    N2273    N        0.37456    0.58259    0.45113    1.000
    N2274    N        0.46288    0.57853    0.44384    1.000
    N2275    N        0.27380    0.57476    0.58997    1.000
    Si2276   Si       0.31510    0.56651    0.60172    1.000
    N2277    N        0.34267    0.56094    0.56603    1.000
    Si2278   Si       0.28352    0.56022    0.50727    1.000
    Si2279   Si       0.24354    0.55959    0.61512    1.000
    Si2280   Si       0.40044    0.57999    0.72476    1.000
    Si2281   Si       0.43151    0.54531    0.52261    1.000
    Si2282   Si       0.38532    0.56761    0.57873    1.000
    N2283    N        0.47473    0.56059    0.51192    1.000
    N2284    N        0.41871    0.54163    0.56457    1.000
    N2285    N        0.41559    0.58332    0.50486    1.000
    Si2286   Si       0.48911    0.56663    0.57856    1.000
    N2287    N        0.38196    0.55356    0.62037    1.000
    N2288    N        0.33315    0.56258    0.68554    1.000
    Si2289   Si       0.41587    0.56000    0.64779    1.000
    N2290    N        0.39994    0.55892    0.68826    1.000
    N2291    N        0.45905    0.60091    0.57580    1.000
    N2292    N        0.32734    0.55490    0.49699    1.000
    N2293    N        0.27001    0.57210    0.78122    1.000
    Si2294   Si       0.32841    0.58553    0.85791    1.000
    Si2295   Si       0.35842    0.57713    0.78762    1.000
    Si2296   Si       0.26792    0.54344    0.86006    1.000
    N2297    N        0.31008    0.54866    0.87295    1.000
    N2298    N        0.33597    0.53976    0.78912    1.000
    N2299    N        0.39555    0.56899    0.80980    1.000
    Si2300   Si       0.46319    0.55583    0.85880    1.000
    Si2301   Si       0.40223    0.58596    0.84887    1.000
    N2302    N        0.46314    0.54999    0.81542    1.000
    Si2303   Si       0.42766    0.54726    0.79097    1.000
    N2304    N        0.43186    0.56572    0.75084    1.000
    N2305    N        0.36833    0.59326    0.74980    1.000
    N2306    N        0.27777    0.56267    0.94191    1.000
    Si2307   Si       0.25907    0.55508    0.98272    1.000
    Si2308   Si       0.31302    0.58229    0.95489    1.000
    N2309    N        0.35509    0.58151    0.93972    1.000
    Si2310   Si       0.36926    0.54185    0.94990    1.000
    N2311    N        0.42116    0.55338    0.87099    1.000
    N2312    N        0.47897    0.59318    0.87696    1.000
    N2313    N        0.40426    0.54203    0.97831    1.000
    N2314    N        0.46353    0.55849    0.93192    1.000
    Si2315   Si       0.44359    0.56036    0.97197    1.000
    N2316    N        0.36758    0.59438    0.87508    1.000
    Si2317   Si       0.26327    0.62023    0.06083    1.000
    N2318    N        0.27773    0.63790    0.02213    1.000
    N2319    N        0.33862    0.61534    0.05723    1.000
    Si2320   Si       0.31679    0.61470    0.01985    1.000
    Si2321   Si       0.32213    0.59874    0.09275    1.000
    Si2322   Si       0.24133    0.65246    0.00133    1.000
    N2323    N        0.47703    0.60481    0.22400    1.000
    N2324    N        0.42288    0.61083    0.10431    1.000
    Si2325   Si       0.43881    0.60867    0.02650    1.000
    N2326    N        0.40519    0.62961    0.04314    1.000
    N2327    N        0.47414    0.62568    0.04290    1.000
    Si2328   Si       0.41078    0.64620    0.08179    1.000
    Si2329   Si       0.36662    0.65061    0.03685    1.000
    N2330    N        0.34514    0.65039    0.18754    1.000
    N2331    N        0.31594    0.62065    0.12968    1.000
    Si2332   Si       0.32049    0.61919    0.17280    1.000
    N2333    N        0.25433    0.65100    0.14439    1.000
    Si2334   Si       0.24640    0.61084    0.16264    1.000
    N2335    N        0.28185    0.59873    0.18639    1.000
    Si2336   Si       0.43383    0.60588    0.23174    1.000
    N2337    N        0.42106    0.64645    0.21998    1.000
    Si2338   Si       0.43794    0.61380    0.14397    1.000
    Si2339   Si       0.38861    0.64682    0.19083    1.000
    N2340    N        0.40095    0.61027    0.16939    1.000
    N2341    N        0.45579    0.65322    0.14929    1.000
    Si2342   Si       0.35209    0.62999    0.30222    1.000
    Si2343   Si       0.27887    0.64131    0.28160    1.000
    N2344    N        0.28483    0.60901    0.25336    1.000
    N2345    N        0.25334    0.64001    0.31567    1.000
    Si2346   Si       0.23849    0.64723    0.35387    1.000
    N2347    N        0.36491    0.61712    0.34128    1.000
    N2348    N        0.43456    0.60442    0.27437    1.000
    N2349    N        0.42969    0.63009    0.33653    1.000
    Si2350   Si       0.42615    0.64059    0.29449    1.000
    N2351    N        0.38598    0.65352    0.28390    1.000
    Si2352   Si       0.38617    0.60802    0.48423    1.000
    Si2353   Si       0.34861    0.63745    0.37458    1.000
    Si2354   Si       0.25976    0.62800    0.48361    1.000
    Si2355   Si       0.28807    0.63917    0.41361    1.000
    N2356    N        0.31226    0.61573    0.38523    1.000
    N2357    N        0.26898    0.61256    0.44418    1.000
    N2358    N        0.46921    0.62934    0.49437    1.000
    Si2359   Si       0.46267    0.60254    0.40655    1.000
    N2360    N        0.45025    0.64287    0.40267    1.000
    N2361    N        0.41073    0.64100    0.46620    1.000
    N2362    N        0.38239    0.63217    0.40094    1.000
    N2363    N        0.31861    0.65364    0.29474    1.000
    Si2364   Si       0.32562    0.65097    0.48194    1.000
    Si2365   Si       0.41371    0.65535    0.42491    1.000
    N2366    N        0.31421    0.62651    0.56649    1.000
    Si2367   Si       0.35331    0.63123    0.55027    1.000
    Si2368   Si       0.27659    0.60759    0.55813    1.000
    Si2369   Si       0.31299    0.64095    0.61038    1.000
    N2370    N        0.35110    0.62402    0.50661    1.000
    N2371    N        0.24219    0.63451    0.55906    1.000
    N2372    N        0.27060    0.65720    0.61690    1.000
    N2373    N        0.49146    0.64533    0.61999    1.000
    Si2374   Si       0.42534    0.62795    0.56862    1.000
    N2375    N        0.38638    0.60974    0.56986    1.000
    Si2376   Si       0.40529    0.62575    0.67485    1.000
    Si2377   Si       0.46525    0.61009    0.61850    1.000
    Si2378   Si       0.25331    0.63021    0.64775    1.000
    Si2379   Si       0.28159    0.64342    0.71073    1.000
    Si2380   Si       0.35618    0.63092    0.73147    1.000
    N2381    N        0.25098    0.62805    0.73531    1.000
    N2382    N        0.28646    0.61948    0.67343    1.000
    N2383    N        0.31298    0.62692    0.73829    1.000
    Si2384   Si       0.32671    0.60233    0.67094    1.000
    N2385    N        0.32413    0.60205    0.62695    1.000
    N2386    N        0.36258    0.62113    0.68925    1.000
    N2387    N        0.42936    0.60252    0.64612    1.000
    N2388    N        0.42765    0.61876    0.71350    1.000
    Si2389   Si       0.45723    0.59767    0.73987    1.000
    N2390    N        0.42521    0.65693    0.53700    1.000
    Si2391   Si       0.42960    0.65476    0.73991    1.000
    N2392    N        0.26383    0.59754    0.51609    1.000
    Si2393   Si       0.31224    0.63684    0.82836    1.000
    Si2394   Si       0.28180    0.61124    0.76598    1.000
    N2395    N        0.28006    0.63908    0.80017    1.000
    N2396    N        0.30231    0.61922    0.86794    1.000
    N2397    N        0.33594    0.59983    0.81698    1.000
    N2398    N        0.45610    0.63218    0.76671    1.000
    N2399    N        0.42752    0.62221    0.84532    1.000
    N2400    N        0.43899    0.60039    0.98479    1.000
    Si2401   Si       0.28226    0.63166    0.90499    1.000
    N2402    N        0.30482    0.62317    0.94157    1.000
    N2403    N        0.24671    0.60672    0.90512    1.000
    Si2404   Si       0.33938    0.64581    0.95757    1.000
    N2405    N        0.34876    0.63015    0.99606    1.000
    N2406    N        0.48364    0.62293    0.94019    1.000
    Si2407   Si       0.44805    0.62146    0.88373    1.000
    N2408    N        0.42174    0.61498    0.91559    1.000
    Si2409   Si       0.37961    0.60848    0.91420    1.000
    N2410    N        0.37108    0.64886    0.92950    1.000
    Si2411   Si       0.44144    0.62831    0.95179    1.000
    N2412    N        0.33012    0.67840    0.03542    1.000
    Si2413   Si       0.28993    0.67378    0.04737    1.000
    Si2414   Si       0.35348    0.69977    0.10427    1.000
    Si2415   Si       0.34985    0.70228    0.00122    1.000
    N2416    N        0.27837    0.65315    0.08277    1.000
    Si2417   Si       0.48525    0.66457    0.02875    1.000
    N2418    N        0.44049    0.67548    0.08701    1.000
    N2419    N        0.38853    0.68778    0.01902    1.000
    N2420    N        0.45726    0.70048    0.02357    1.000
    N2421    N        0.37325    0.66599    0.08429    1.000
    Si2422   Si       0.44571    0.71207    0.06476    1.000
    Si2423   Si       0.47256    0.68549    0.11684    1.000
    N2424    N        0.31765    0.68962    0.12648    1.000
    N2425    N        0.28582    0.70839    0.18925    1.000
    Si2426   Si       0.32369    0.69035    0.20059    1.000
    N2427    N        0.33515    0.69115    0.24191    1.000
    N2428    N        0.25400    0.71536    0.13260    1.000
    Si2429   Si       0.44704    0.68619    0.17538    1.000
    N2430    N        0.46177    0.70364    0.21302    1.000
    N2431    N        0.40338    0.68278    0.17242    1.000
    Si2432   Si       0.29131    0.65520    0.12227    1.000
    N2433    N        0.45722    0.71624    0.14656    1.000
    Si2434   Si       0.31244    0.69498    0.27912    1.000
    N2435    N        0.27085    0.67781    0.26197    1.000
    N2436    N        0.33765    0.67690    0.36123    1.000
    Si2437   Si       0.24933    0.71035    0.28069    1.000
    N2438    N        0.35461    0.71260    0.29889    1.000
    N2439    N        0.45280    0.70022    0.48700    1.000
    Si2440   Si       0.45145    0.65866    0.36230    1.000
    Si2441   Si       0.37203    0.69035    0.26684    1.000
    N2442    N        0.45358    0.67127    0.27884    1.000
    N2443    N        0.43587    0.69784    0.35314    1.000
    Si2444   Si       0.48538    0.68511    0.30529    1.000
    N2445    N        0.40481    0.71082    0.24842    1.000
    N2446    N        0.48819    0.66121    0.34089    1.000
    N2447    N        0.25324    0.71162    0.44602    1.000
    N2448    N        0.35156    0.68667    0.48276    1.000
    Si2449   Si       0.26061    0.70536    0.40159    1.000
    Si2450   Si       0.26157    0.70228    0.48856    1.000
    N2451    N        0.31812    0.66217    0.43613    1.000
    N2452    N        0.26253    0.66484    0.38636    1.000
    Si2453   Si       0.33795    0.70027    0.44234    1.000
    N2454    N        0.28361    0.66338    0.49111    1.000
    N2455    N        0.42528    0.69464    0.43075    1.000
    Si2456   Si       0.43668    0.65800    0.49590    1.000
    Si2457   Si       0.46790    0.69914    0.44256    1.000
    Si2458   Si       0.43559    0.68193    0.24169    1.000
    Si2459   Si       0.35325    0.69576    0.59791    1.000
    Si2460   Si       0.25086    0.67165    0.58130    1.000
    N2461    N        0.26762    0.70626    0.55741    1.000
    Si2462   Si       0.35786    0.69864    0.52245    1.000
    N2463    N        0.36032    0.67368    0.55977    1.000
    Si2464   Si       0.47017    0.68315    0.59668    1.000
    Si2465   Si       0.41267    0.69166    0.56211    1.000
    N2466    N        0.43152    0.65903    0.59808    1.000
    N2467    N        0.40106    0.66766    0.66533    1.000
    N2468    N        0.34055    0.66931    0.63079    1.000
    Si2469   Si       0.25905    0.69649    0.66599    1.000
    N2470    N        0.34190    0.68933    0.70908    1.000
    N2471    N        0.27611    0.68715    0.70786    1.000
    Si2472   Si       0.25844    0.71131    0.74140    1.000
    Si2473   Si       0.36397    0.68650    0.67050    1.000
    Si2474   Si       0.36730    0.70105    0.74574    1.000
    N2475    N        0.45659    0.68903    0.72856    1.000
    Si2476   Si       0.41877    0.68672    0.62981    1.000
    N2477    N        0.46162    0.69805    0.63904    1.000
    N2478    N        0.44805    0.71516    0.57364    1.000
    N2479    N        0.39199    0.71378    0.60969    1.000
    Si2480   Si       0.25737    0.67605    0.80613    1.000
    N2481    N        0.32993    0.67347    0.84070    1.000
    N2482    N        0.25713    0.68354    0.84870    1.000
    N2483    N        0.27730    0.70491    0.78073    1.000
    Si2484   Si       0.29720    0.69222    0.86449    1.000
    N2485    N        0.34916    0.71079    0.78476    1.000
    Si2486   Si       0.36315    0.70033    0.82543    1.000
    N2487    N        0.40486    0.68837    0.83606    1.000
    N2488    N        0.47672    0.68101    0.81369    1.000
    Si2489   Si       0.44237    0.66497    0.83745    1.000
    N2490    N        0.38496    0.65982    0.74669    1.000
    N2491    N        0.32207    0.68367    0.96928    1.000
    Si2492   Si       0.28556    0.68945    0.94769    1.000
    N2493    N        0.29142    0.67547    0.90544    1.000
    N2494    N        0.24564    0.67583    0.96350    1.000
    N2495    N        0.41462    0.70909    0.90521    1.000
    Si2496   Si       0.39470    0.68344    0.93775    1.000
    N2497    N        0.46287    0.66182    0.87577    1.000
    N2498    N        0.42448    0.66802    0.96328    1.000
    Si2499   Si       0.42189    0.69798    0.99434    1.000
    N2500    N        0.34744    0.73157    0.07322    1.000
    Si2501   Si       0.31164    0.74210    0.05102    1.000
    N2502    N        0.32913    0.74028    0.01017    1.000
    N2503    N        0.27889    0.71471    0.05498    1.000
    N2504    N        0.48281    0.71806    0.08700    1.000
    N2505    N        0.41489    0.74449    0.06311    1.000
    Si2506   Si       0.38136    0.75354    0.08849    1.000
    Si2507   Si       0.47240    0.73871    0.00071    1.000
    N2508    N        0.46568    0.77336    0.02391    1.000
    N2509    N        0.24342    0.76325    0.18057    1.000
    N2510    N        0.30268    0.76041    0.13036    1.000
    Si2511   Si       0.26571    0.74023    0.21105    1.000
    Si2512   Si       0.33797    0.76264    0.20730    1.000
    N2513    N        0.30071    0.76139    0.22731    1.000
    N2514    N        0.34833    0.72513    0.18780    1.000
    Si2515   Si       0.29595    0.72073    0.14659    1.000
    Si2516   Si       0.38598    0.72125    0.16674    1.000
    N2517    N        0.44479    0.76667    0.24696    1.000
    N2518    N        0.38277    0.72515    0.12394    1.000
    N2519    N        0.41358    0.74646    0.18832    1.000
    Si2520   Si       0.40700    0.75019    0.22926    1.000
    Si2521   Si       0.44817    0.75560    0.16219    1.000
    N2522    N        0.48141    0.76472    0.18818    1.000
    Si2523   Si       0.47431    0.74313    0.22709    1.000
    N2524    N        0.34088    0.75413    0.34736    1.000
    N2525    N        0.28735    0.73048    0.29001    1.000
    Si2526   Si       0.29579    0.76890    0.26993    1.000
    Si2527   Si       0.35851    0.75496    0.30829    1.000
    N2528    N        0.39914    0.76809    0.30802    1.000
    N2529    N        0.46481    0.76912    0.36245    1.000
    N2530    N        0.41744    0.75399    0.39587    1.000
    Si2531   Si       0.33901    0.71838    0.37256    1.000
    N2532    N        0.31986    0.73736    0.45472    1.000
    Si2533   Si       0.30618    0.75805    0.42010    1.000
    N2534    N        0.29935    0.72462    0.39330    1.000
    Si2535   Si       0.24122    0.75562    0.45798    1.000
    Si2536   Si       0.31505    0.75447    0.49331    1.000
    N2537    N        0.27020    0.74734    0.49473    1.000
    N2538    N        0.36283    0.71509    0.40954    1.000
    N2539    N        0.26582    0.77190    0.42558    1.000
    Si2540   Si       0.24757    0.77346    0.38526    1.000
    Si2541   Si       0.39798    0.73008    0.42751    1.000
    N2542    N        0.48115    0.71871    0.40378    1.000
    Si2543   Si       0.44950    0.72883    0.37854    1.000
    N2544    N        0.39768    0.75129    0.46624    1.000
    Si2545   Si       0.42093    0.73225    0.49659    1.000
    Si2546   Si       0.29903    0.73534    0.55950    1.000
    N2547    N        0.32731    0.72821    0.52780    1.000
    N2548    N        0.32182    0.72434    0.59428    1.000
    N2549    N        0.27223    0.77188    0.61627    1.000
    Si2550   Si       0.45665    0.75381    0.55928    1.000
    N2551    N        0.45123    0.75746    0.51461    1.000
    N2552    N        0.39665    0.71793    0.52908    1.000
    Si2553   Si       0.48216    0.72984    0.49844    1.000
    N2554    N        0.48618    0.76194    0.63807    1.000
    Si2555   Si       0.47369    0.73067    0.66260    1.000
    N2556    N        0.37183    0.72986    0.66808    1.000
    Si2557   Si       0.30801    0.74881    0.62846    1.000
    N2558    N        0.29413    0.72287    0.66077    1.000
    N2559    N        0.33559    0.75153    0.72203    1.000
    N2560    N        0.27414    0.74860    0.72618    1.000
    Si2561   Si       0.30934    0.71929    0.70196    1.000
    Si2562   Si       0.37573    0.75327    0.70318    1.000
    N2563    N        0.44406    0.74829    0.68830    1.000
    Si2564   Si       0.38059    0.75062    0.63138    1.000
    Si2565   Si       0.43980    0.73194    0.72826    1.000
    N2566    N        0.39604    0.72970    0.73526    1.000
    Si2567   Si       0.26809    0.75867    0.85352    1.000
    N2568    N        0.29800    0.72869    0.84175    1.000
    Si2569   Si       0.31122    0.72717    0.80097    1.000
    N2570    N        0.30578    0.76784    0.79129    1.000
    Si2571   Si       0.30644    0.77196    0.74698    1.000
    Si2572   Si       0.40638    0.72176    0.86565    1.000
    Si2573   Si       0.47330    0.76611    0.83300    1.000
    N2574    N        0.36911    0.73838    0.84688    1.000
    N2575    N        0.43342    0.75325    0.84686    1.000
    N2576    N        0.45834    0.76180    0.75393    1.000
    N2577    N        0.28348    0.73310    0.94985    1.000
    Si2578   Si       0.30870    0.75604    0.97649    1.000
    Si2579   Si       0.25026    0.75057    0.92813    1.000
    N2580    N        0.24994    0.73753    0.88798    1.000
    N2581    N        0.47518    0.75339    0.91843    1.000
    Si2582   Si       0.43476    0.74023    0.93018    1.000
    Si2583   Si       0.37952    0.75903    0.96790    1.000
    N2584    N        0.40397    0.77034    0.93040    1.000
    N2585    N        0.43927    0.73341    0.97359    1.000
    N2586    N        0.37637    0.71505    0.96533    1.000
    Si2587   Si       0.28424    0.78882    0.10391    1.000
    Si2588   Si       0.25762    0.78347    0.03447    1.000
    N2589    N        0.29112    0.77833    0.06394    1.000
    N2590    N        0.24168    0.79044    0.11620    1.000
    N2591    N        0.36236    0.82761    0.04763    1.000
    N2592    N        0.37186    0.77485    0.23151    1.000
    N2593    N        0.37126    0.79182    0.10943    1.000
    Si2594   Si       0.45504    0.80659    0.10101    1.000
    N2595    N        0.42557    0.80795    0.06872    1.000
    Si2596   Si       0.38666    0.82423    0.08432    1.000
    Si2597   Si       0.37547    0.82225    0.00742    1.000
    N2598    N        0.39055    0.78167    0.00609    1.000
    Si2599   Si       0.42277    0.77808    0.03515    1.000
    N2600    N        0.49011    0.78504    0.08569    1.000
    N2601    N        0.31019    0.81862    0.11956    1.000
    N2602    N        0.34948    0.79118    0.17577    1.000
    Si2603   Si       0.33664    0.78950    0.13497    1.000
    N2604    N        0.44156    0.79192    0.13916    1.000
    N2605    N        0.48346    0.82885    0.17821    1.000
    Si2606   Si       0.44186    0.82320    0.16913    1.000
    N2607    N        0.41860    0.81495    0.20550    1.000
    Si2608   Si       0.37663    0.80866    0.20497    1.000
    N2609    N        0.27847    0.80915    0.28165    1.000
    Si2610   Si       0.31979    0.82306    0.29419    1.000
    Si2611   Si       0.25236    0.80696    0.31893    1.000
    Si2612   Si       0.31564    0.78752    0.35840    1.000
    N2613    N        0.33348    0.78358    0.28568    1.000
    N2614    N        0.31772    0.82378    0.33642    1.000
    N2615    N        0.27093    0.78181    0.35107    1.000
    Si2616   Si       0.42492    0.80119    0.31690    1.000
    N2617    N        0.41215    0.81522    0.35807    1.000
    N2618    N        0.46778    0.80551    0.30828    1.000
    N2619    N        0.41919    0.82909    0.28153    1.000
    N2620    N        0.33795    0.79116    0.48950    1.000
    Si2621   Si       0.34353    0.82584    0.41699    1.000
    N2622    N        0.32591    0.79025    0.40068    1.000
    Si2623   Si       0.31969    0.82957    0.48591    1.000
    Si2624   Si       0.37791    0.78971    0.47225    1.000
    Si2625   Si       0.43510    0.79148    0.38493    1.000
    N2626    N        0.38078    0.81651    0.43573    1.000
    N2627    N        0.45079    0.81702    0.41788    1.000
    Si2628   Si       0.43763    0.81168    0.24559    1.000
    Si2629   Si       0.27699    0.80121    0.58370    1.000
    Si2630   Si       0.34047    0.81666    0.61677    1.000
    Si2631   Si       0.25645    0.78316    0.51720    1.000
    N2632    N        0.27951    0.82125    0.50177    1.000
    N2633    N        0.28619    0.77630    0.55013    1.000
    N2634    N        0.24225    0.82400    0.56970    1.000
    N2635    N        0.48601    0.78221    0.57479    1.000
    N2636    N        0.46960    0.82373    0.52493    1.000
    Si2637   Si       0.47538    0.82493    0.57090    1.000
    N2638    N        0.42302    0.78589    0.56277    1.000
    Si2639   Si       0.43470    0.79921    0.52335    1.000
    Si2640   Si       0.41172    0.80734    0.59877    1.000
    N2641    N        0.37271    0.82422    0.58791    1.000
    N2642    N        0.40187    0.81243    0.50079    1.000
    N2643    N        0.34365    0.77470    0.62840    1.000
    Si2644   Si       0.25956    0.78769    0.71300    1.000
    N2645    N        0.29626    0.80829    0.72824    1.000
    Si2646   Si       0.42881    0.78645    0.67254    1.000
    Si2647   Si       0.39730    0.82991    0.72158    1.000
    N2648    N        0.39727    0.79198    0.70221    1.000
    N2649    N        0.45962    0.81868    0.67702    1.000
    N2650    N        0.41034    0.78333    0.63401    1.000
    N2651    N        0.23715    0.78345    0.67637    1.000
    N2652    N        0.30525    0.83153    0.59667    1.000
    Si2653   Si       0.30465    0.80452    0.81448    1.000
    N2654    N        0.29317    0.79395    0.85775    1.000
    Si2655   Si       0.23765    0.82035    0.83239    1.000
    N2656    N        0.46243    0.80415    0.80923    1.000
    Si2657   Si       0.43760    0.79514    0.77488    1.000
    N2658    N        0.39923    0.78996    0.79538    1.000
    N2659    N        0.39218    0.80693    0.86609    1.000
    Si2660   Si       0.37562    0.82793    0.78900    1.000
    Si2661   Si       0.48602    0.82738    0.83679    1.000
    Si2662   Si       0.39580    0.77537    0.83620    1.000
    N2663    N        0.33757    0.77658    0.95368    1.000
    Si2664   Si       0.34190    0.81847    0.94452    1.000
    Si2665   Si       0.25529    0.80643    0.96845    1.000
    N2666    N        0.25794    0.79308    0.92768    1.000
    Si2667   Si       0.27844    0.81211    0.89517    1.000
    N2668    N        0.44926    0.81702    0.90545    1.000
    Si2669   Si       0.48453    0.79251    0.90484    1.000
    Si2670   Si       0.40651    0.80690    0.90717    1.000
    N2671    N        0.38228    0.83109    0.93378    1.000
    N2672    N        0.27869    0.78022    0.99508    1.000
    N2673    N        0.29859    0.85714    0.03401    1.000
    Si2674   Si       0.33822    0.86171    0.05453    1.000
    Si2675   Si       0.25904    0.85880    0.05539    1.000
    N2676    N        0.25563    0.85525    0.09970    1.000
    N2677    N        0.32743    0.87567    0.09581    1.000
    Si2678   Si       0.29523    0.85867    0.11957    1.000
    N2679    N        0.39403    0.86429    0.09849    1.000
    N2680    N        0.46576    0.84841    0.11203    1.000
    N2681    N        0.41162    0.84144    0.99890    1.000
    Si2682   Si       0.43226    0.87756    0.11730    1.000
    Si2683   Si       0.32642    0.86449    0.22938    1.000
    N2684    N        0.28924    0.87750    0.15794    1.000
    N2685    N        0.28573    0.84516    0.21893    1.000
    Si2686   Si       0.26145    0.86261    0.18721    1.000
    N2687    N        0.36017    0.84873    0.20812    1.000
    N2688    N        0.42137    0.86325    0.15954    1.000
    Si2689   Si       0.38390    0.87616    0.18397    1.000
    Si2690   Si       0.31631    0.86248    0.36022    1.000
    N2691    N        0.33293    0.85934    0.27454    1.000
    N2692    N        0.24633    0.84698    0.33191    1.000
    N2693    N        0.24886    0.87091    0.26780    1.000
    Si2694   Si       0.35472    0.89241    0.29840    1.000
    Si2695   Si       0.25809    0.83344    0.25035    1.000
    Si2696   Si       0.41441    0.87034    0.29551    1.000
    N2697    N        0.38492    0.87053    0.32737    1.000
    N2698    N        0.45746    0.88079    0.29994    1.000
    Si2699   Si       0.48016    0.84331    0.28921    1.000
    Si2700   Si       0.38961    0.85262    0.36776    1.000
    N2701    N        0.34859    0.86236    0.49470    1.000
    Si2702   Si       0.24371    0.85008    0.37650    1.000
    Si2703   Si       0.28450    0.86997    0.43156    1.000
    N2704    N        0.34973    0.85140    0.38456    1.000
    N2705    N        0.28183    0.86608    0.38768    1.000
    N2706    N        0.24471    0.86148    0.44854    1.000
    N2707    N        0.31378    0.84083    0.44455    1.000
    Si2708   Si       0.24358    0.83877    0.48376    1.000
    N2709    N        0.41320    0.87165    0.46516    1.000
    N2710    N        0.41095    0.87141    0.40148    1.000
    Si2711   Si       0.41649    0.84058    0.43297    1.000
    N2712    N        0.47432    0.83483    0.24647    1.000
    Si2713   Si       0.29954    0.87361    0.58920    1.000
    N2714    N        0.33915    0.88635    0.56896    1.000
    N2715    N        0.40473    0.85919    0.69060    1.000
    N2716    N        0.39954    0.88129    0.61244    1.000
    Si2717   Si       0.44469    0.87573    0.61155    1.000
    Si2718   Si       0.37878    0.86524    0.57637    1.000
    N2719    N        0.40275    0.86957    0.54040    1.000
    N2720    N        0.44551    0.83527    0.59825    1.000
    Si2721   Si       0.39133    0.85473    0.49982    1.000
    Si2722   Si       0.32423    0.87854    0.66111    1.000
    N2723    N        0.30863    0.86524    0.69738    1.000
    N2724    N        0.35133    0.84698    0.64801    1.000
    Si2725   Si       0.32179    0.84292    0.73148    1.000
    N2726    N        0.29538    0.88699    0.63059    1.000
    N2727    N        0.36256    0.83631    0.74568    1.000
    Si2728   Si       0.44941    0.86037    0.68741    1.000
    Si2729   Si       0.38438    0.87528    0.65540    1.000
    N2730    N        0.44755    0.88781    0.65371    1.000
    N2731    N        0.47160    0.88190    0.71673    1.000
    N2732    N        0.26301    0.89108    0.57209    1.000
    Si2733   Si       0.27368    0.87205    0.79065    1.000
    N2734    N        0.34930    0.86650    0.86063    1.000
    Si2735   Si       0.33674    0.87519    0.81944    1.000
    N2736    N        0.29799    0.87208    0.75544    1.000
    N2737    N        0.26817    0.82964    0.80362    1.000
    N2738    N        0.39750    0.85760    0.81377    1.000
    N2739    N        0.46873    0.86232    0.85297    1.000
    Si2740   Si       0.38914    0.85050    0.85606    1.000
    Si2741   Si       0.45534    0.87353    0.75704    1.000
    N2742    N        0.48010    0.88338    0.79240    1.000
    N2743    N        0.43440    0.83120    0.74979    1.000
    N2744    N        0.24822    0.83679    0.87359    1.000
    Si2745   Si       0.24377    0.87703    0.89192    1.000
    Si2746   Si       0.32503    0.87188    0.89689    1.000
    N2747    N        0.26553    0.84699    0.97460    1.000
    Si2748   Si       0.30352    0.86013    0.98920    1.000
    N2749    N        0.34079    0.83707    0.98380    1.000
    N2750    N        0.35315    0.89039    0.92524    1.000
    Si2751   Si       0.44982    0.85714    0.89069    1.000
    N2752    N        0.48140    0.84906    0.98314    1.000
    N2753    N        0.41074    0.87009    0.88947    1.000
    Si2754   Si       0.39099    0.87308    0.92910    1.000
    Si2755   Si       0.44089    0.86930    0.98415    1.000
    N2756    N        0.47392    0.87705    0.92199    1.000
    N2757    N        0.33570    0.83367    0.80387    1.000
    N2758    N        0.31549    0.83235    0.91337    1.000
    N2759    N        0.35592    0.89870    0.04146    1.000
    N2760    N        0.24233    0.89887    0.05462    1.000
    Si2761   Si       0.36278    0.89219    0.11282    1.000
    N2762    N        0.24907    0.94921    0.10337    1.000
    Si2763   Si       0.37120    0.93554    0.05717    1.000
    Si2764   Si       0.48245    0.91826    0.11165    1.000
    N2765    N        0.37649    0.93175    0.10251    1.000
    Si2766   Si       0.44318    0.92481    0.04740    1.000
    N2767    N        0.44867    0.90730    0.08519    1.000
    N2768    N        0.45268    0.90190    0.01121    1.000
    N2769    N        0.40736    0.94326    0.03529    1.000
    N2770    N        0.48085    0.89263    0.20650    1.000
    N2771    N        0.32211    0.90495    0.21470    1.000
    Si2772   Si       0.31623    0.90820    0.16969    1.000
    Si2773   Si       0.31301    0.93967    0.23946    1.000
    Si2774   Si       0.24530    0.90654    0.24159    1.000
    N2775    N        0.30599    0.95014    0.15667    1.000
    N2776    N        0.35666    0.89239    0.15474    1.000
    Si2777   Si       0.41542    0.92251    0.24381    1.000
    Si2778   Si       0.44500    0.89549    0.18291    1.000
    N2779    N        0.45477    0.91466    0.14614    1.000
    N2780    N        0.41101    0.90374    0.20628    1.000
    N2781    N        0.33379    0.93128    0.27848    1.000
    N2782    N        0.26008    0.91868    0.32232    1.000
    Si2783   Si       0.30371    0.92632    0.31349    1.000
    N2784    N        0.27329    0.93886    0.25189    1.000
    N2785    N        0.32164    0.89364    0.33187    1.000
    Si2786   Si       0.47532    0.92096    0.29078    1.000
    N2787    N        0.45476    0.93371    0.25552    1.000
    N2788    N        0.39245    0.89998    0.27385    1.000
    N2789    N        0.24552    0.92740    0.49047    1.000
    N2790    N        0.29889    0.90559    0.45387    1.000
    Si2791   Si       0.26566    0.93278    0.45250    1.000
    Si2792   Si       0.33935    0.90151    0.47412    1.000
    N2793    N        0.36541    0.91404    0.44149    1.000
    N2794    N        0.48715    0.91736    0.38139    1.000
    Si2795   Si       0.40542    0.90297    0.43429    1.000
    N2796    N        0.43366    0.93446    0.43410    1.000
    Si2797   Si       0.45887    0.92755    0.47101    1.000
    Si2798   Si       0.34893    0.92456    0.54853    1.000
    Si2799   Si       0.25257    0.93172    0.58402    1.000
    N2800    N        0.34451    0.93031    0.50609    1.000
    N2801    N        0.27712    0.94833    0.61689    1.000
    Si2802   Si       0.43068    0.93896    0.73970    1.000
    N2803    N        0.39004    0.93271    0.56151    1.000
    Si2804   Si       0.42498    0.90700    0.54637    1.000
    N2805    N        0.45263    0.90650    0.58150    1.000
    N2806    N        0.44738    0.92094    0.51282    1.000
    N2807    N        0.47293    0.94554    0.74022    1.000
    N2808    N        0.35828    0.90855    0.66502    1.000
    Si2809   Si       0.27245    0.92103    0.65004    1.000
    N2810    N        0.29842    0.92578    0.68371    1.000
    Si2811   Si       0.28360    0.89821    0.71917    1.000
    Si2812   Si       0.33648    0.94517    0.67511    1.000
    N2813    N        0.27381    0.93370    0.74403    1.000
    Si2814   Si       0.44485    0.93180    0.66536    1.000
    N2815    N        0.41844    0.94040    0.69787    1.000
    N2816    N        0.48715    0.93941    0.67448    1.000
    Si2817   Si       0.29504    0.91795    0.85787    1.000
    N2818    N        0.35784    0.90656    0.79667    1.000
    N2819    N        0.33517    0.93566    0.85750    1.000
    Si2820   Si       0.34523    0.94413    0.81360    1.000
    N2821    N        0.26476    0.94640    0.86272    1.000
    N2822    N        0.29676    0.89218    0.82158    1.000
    Si2823   Si       0.46249    0.89841    0.83049    1.000
    N2824    N        0.42197    0.91740    0.83033    1.000
    N2825    N        0.42323    0.90139    0.76140    1.000
    Si2826   Si       0.40026    0.89965    0.79778    1.000
    N2827    N        0.48504    0.93190    0.84960    1.000
    N2828    N        0.28452    0.88869    0.88959    1.000
    N2829    N        0.30675    0.90040    0.97343    1.000
    N2830    N        0.26725    0.94328    0.93426    1.000
    Si2831   Si       0.27467    0.92932    0.97699    1.000
    Si2832   Si       0.34061    0.92222    0.95193    1.000
    Si2833   Si       0.41022    0.92692    0.99025    1.000
    N2834    N        0.41390    0.89411    0.95945    1.000
    N2835    N        0.36725    0.93797    0.98135    1.000
    Si2836   Si       0.23969    0.94402    0.89858    1.000
    N2837    N        0.27659    0.98748    0.04091    1.000
    N2838    N        0.30170    0.99726    0.10130    1.000
    N2839    N        0.34399    0.96657    0.04422    1.000
    Si2840   Si       0.31641    0.99682    0.05993    1.000
    Si2841   Si       0.24580    0.97944    0.07121    1.000
    Si2842   Si       0.34735    0.96985    0.00176    1.000
    Si2843   Si       0.27642    0.99392    0.99890    1.000
    N2844    N        0.36306    0.00293    0.11380    1.000
    N2845    N        0.37105    0.00507    0.99598    1.000
    N2846    N        0.47842    0.95128    0.04066    1.000
    Si2847   Si       0.27977    0.97104    0.12942    1.000
    N2848    N        0.24967    0.99725    0.14878    1.000
    Si2849   Si       0.33336    0.97630    0.17640    1.000
    N2850    N        0.33010    0.97391    0.22035    1.000
    Si2851   Si       0.35230    0.00605    0.24108    1.000
    N2852    N        0.39355    0.95955    0.24474    1.000
    Si2853   Si       0.45783    0.95738    0.15385    1.000
    N2854    N        0.42801    0.97680    0.12832    1.000
    N2855    N        0.44496    0.96877    0.19561    1.000
    Si2856   Si       0.38524    0.96897    0.12713    1.000
    Si2857   Si       0.47136    0.96327    0.22930    1.000
    N2858    N        0.37536    0.96556    0.16972    1.000
    Si2859   Si       0.40189    0.97768    0.20546    1.000
    N2860    N        0.29760    0.96810    0.32278    1.000
    N2861    N        0.35144    0.99694    0.28389    1.000
    Si2862   Si       0.25661    0.96172    0.33293    1.000
    Si2863   Si       0.32377    0.00048    0.31796    1.000
    N2864    N        0.34322    0.00540    0.35513    1.000
    Si2865   Si       0.23677    0.96673    0.26344    1.000
    Si2866   Si       0.38018    0.98444    0.35540    1.000
    N2867    N        0.47472    0.00098    0.25520    1.000
    N2868    N        0.38473    0.95712    0.32129    1.000
    Si2869   Si       0.37088    0.95538    0.28186    1.000
    N2870    N        0.48053    0.95584    0.31567    1.000
    Si2871   Si       0.48450    0.95458    0.35836    1.000
    Si2872   Si       0.48914    0.99482    0.29621    1.000
    N2873    N        0.25328    0.97213    0.37565    1.000
    Si2874   Si       0.28679    0.97876    0.40350    1.000
    N2875    N        0.27215    0.97468    0.44496    1.000
    Si2876   Si       0.27327    0.00288    0.47877    1.000
    N2877    N        0.31803    0.95070    0.40084    1.000
    N2878    N        0.35553    0.98154    0.45321    1.000
    Si2879   Si       0.35538    0.95107    0.42108    1.000
    N2880    N        0.41818    0.00599    0.42948    1.000
    N2881    N        0.38631    0.96162    0.39252    1.000
    Si2882   Si       0.42716    0.96857    0.40767    1.000
    N2883    N        0.45454    0.98100    0.37595    1.000
    N2884    N        0.47657    0.96648    0.48151    1.000
    Si2885   Si       0.31246    0.96912    0.60792    1.000
    Si2886   Si       0.29778    0.98260    0.54982    1.000
    N2887    N        0.30578    0.99247    0.50679    1.000
    N2888    N        0.25730    0.96871    0.55757    1.000
    N2889    N        0.32375    0.95339    0.56793    1.000
    Si2890   Si       0.25217    0.00162    0.59155    1.000
    N2891    N        0.40969    0.97675    0.74720    1.000
    Si2892   Si       0.34642    0.97506    0.49722    1.000
    N2893    N        0.37214    0.99000    0.52900    1.000
    Si2894   Si       0.40019    0.97664    0.56099    1.000
    N2895    N        0.44693    0.97323    0.55579    1.000
    N2896    N        0.39694    0.00033    0.59799    1.000
    Si2897   Si       0.47557    0.95467    0.52394    1.000
    N2898    N        0.29183    0.00029    0.74311    1.000
    N2899    N        0.33971    0.97390    0.64127    1.000
    N2900    N        0.35121    0.96928    0.70817    1.000
    Si2901   Si       0.32818    0.00403    0.71890    1.000
    Si2902   Si       0.39269    0.97689    0.70617    1.000
    N2903    N        0.43716    0.95620    0.63001    1.000
    Si2904   Si       0.41597    0.99282    0.63613    1.000
    N2905    N        0.39400    0.00546    0.67085    1.000
    Si2906   Si       0.45816    0.94769    0.59370    1.000
    Si2907   Si       0.28546    0.96713    0.76976    1.000
    N2908    N        0.31326    0.97065    0.80383    1.000
    Si2909   Si       0.24620    0.97294    0.83280    1.000
    N2910    N        0.24573    0.96580    0.78964    1.000
    Si2911   Si       0.31360    0.00537    0.83056    1.000
    N2912    N        0.33080    0.00412    0.87216    1.000
    Si2913   Si       0.40865    0.95745    0.84134    1.000
    Si2914   Si       0.42173    0.99586    0.78592    1.000
    N2915    N        0.43946    0.98075    0.82325    1.000
    N2916    N        0.38151    0.96942    0.80930    1.000
    Si2917   Si       0.47970    0.97183    0.83329    1.000
    N2918    N        0.46189    0.00925    0.76655    1.000
    N2919    N        0.30558    0.96741    0.98286    1.000
    Si2920   Si       0.29833    0.97240    0.93754    1.000
    Si2921   Si       0.35119    0.96607    0.88502    1.000
    N2922    N        0.33419    0.95557    0.92299    1.000
    N2923    N        0.49005    0.00597    0.95961    1.000
    N2924    N        0.45493    0.97009    0.91203    1.000
    N2925    N        0.43024    0.96348    0.97483    1.000
    Si2926   Si       0.42087    0.99718    0.90304    1.000
    Si2927   Si       0.46581    0.96783    0.95235    1.000
    N2928    N        0.39510    0.96975    0.88164    1.000
    Si2929   Si       0.41137    0.00237    0.98298    1.000
    Si2930   Si       0.58705    0.05108    0.07014    1.000
    N2931    N        0.55244    0.05348    0.09590    1.000
    N2932    N        0.58702    0.01725    0.04410    1.000
    N2933    N        0.62526    0.05904    0.08727    1.000
    Si2934   Si       0.70925    0.04575    0.09375    1.000
    N2935    N        0.66211    0.01538    0.04784    1.000
    N2936    N        0.72210    0.00882    0.07485    1.000
    N2937    N        0.73628    0.03053    0.18302    1.000
    Si2938   Si       0.52559    0.03798    0.12634    1.000
    N2939    N        0.57470    0.03822    0.18946    1.000
    N2940    N        0.50300    0.05310    0.21419    1.000
    Si2941   Si       0.58905    0.02583    0.22920    1.000
    Si2942   Si       0.58518    0.00689    0.16119    1.000
    N2943    N        0.63363    0.02264    0.22927    1.000
    N2944    N        0.69556    0.02581    0.24447    1.000
    N2945    N        0.68584    0.04687    0.12941    1.000
    Si2946   Si       0.66486    0.05461    0.23127    1.000
    Si2947   Si       0.70929    0.05930    0.16509    1.000
    Si2948   Si       0.64118    0.04840    0.12565    1.000
    N2949    N        0.62808    0.01358    0.14715    1.000
    Si2950   Si       0.54110    0.06564    0.19769    1.000
    N2951    N        0.51473    0.00705    0.02456    1.000
    Si2952   Si       0.53912    0.05339    0.28233    1.000
    Si2953   Si       0.60187    0.04081    0.33201    1.000
    N2954    N        0.56812    0.05931    0.25013    1.000
    N2955    N        0.56374    0.06264    0.32121    1.000
    N2956    N        0.52955    0.01301    0.29444    1.000
    N2957    N        0.73349    0.03884    0.35906    1.000
    Si2958   Si       0.70330    0.02759    0.32815    1.000
    Si2959   Si       0.73393    0.02471    0.26347    1.000
    N2960    N        0.64274    0.07026    0.46453    1.000
    N2961    N        0.61131    0.03042    0.37298    1.000
    N2962    N        0.57758    0.05470    0.44090    1.000
    N2963    N        0.53822    0.03109    0.37926    1.000
    Si2964   Si       0.57732    0.04203    0.39840    1.000
    Si2965   Si       0.57453    0.01180    0.45636    1.000
    N2966    N        0.68171    0.03240    0.40572    1.000
    Si2967   Si       0.72015    0.01610    0.39380    1.000
    Si2968   Si       0.65237    0.01501    0.37848    1.000
    N2969    N        0.70464    0.05064    0.47387    1.000
    Si2970   Si       0.67863    0.06008    0.44034    1.000
    Si2971   Si       0.73883    0.06684    0.49363    1.000
    N2972    N        0.66722    0.00597    0.33894    1.000
    N2973    N        0.53160    0.03914    0.60950    1.000
    Si2974   Si       0.54567    0.04971    0.57004    1.000
    N2975    N        0.56031    0.01968    0.54307    1.000
    N2976    N        0.49067    0.02416    0.51832    1.000
    N2977    N        0.61994    0.02656    0.57710    1.000
    N2978    N        0.65451    0.02117    0.52019    1.000
    N2979    N        0.68390    0.05526    0.57784    1.000
    Si2980   Si       0.66604    0.01767    0.56318    1.000
    Si2981   Si       0.65687    0.06384    0.50562    1.000
    Si2982   Si       0.49559    0.02640    0.69735    1.000
    N2983    N        0.57212    0.04836    0.73483    1.000
    N2984    N        0.58662    0.05337    0.65927    1.000
    N2985    N        0.52001    0.06215    0.68734    1.000
    Si2986   Si       0.56099    0.06856    0.62777    1.000
    N2987    N        0.73856    0.06198    0.53580    1.000
    N2988    N        0.65999    0.04381    0.64410    1.000
    Si2989   Si       0.62187    0.02789    0.65952    1.000
    Si2990   Si       0.69390    0.03564    0.67036    1.000
    N2991    N        0.73678    0.04516    0.65710    1.000
    N2992    N        0.69039    0.05628    0.70967    1.000
    N2993    N        0.63081    0.01949    0.70227    1.000
    Si2994   Si       0.64728    0.05510    0.72000    1.000
    N2995    N        0.54971    0.03247    0.84500    1.000
    Si2996   Si       0.58392    0.01969    0.81732    1.000
    N2997    N        0.59996    0.05577    0.80112    1.000
    Si2998   Si       0.52652    0.06800    0.83072    1.000
    N2999    N        0.66766    0.04367    0.82335    1.000
    N3000    N        0.71739    0.04960    0.77313    1.000
    N3001    N        0.65185    0.04592    0.76083    1.000
    Si3002   Si       0.68604    0.01957    0.76898    1.000
    Si3003   Si       0.72084    0.03090    0.97432    1.000
    N3004    N        0.53888    0.05472    0.95678    1.000
    Si3005   Si       0.51470    0.02772    0.93062    1.000
    N3006    N        0.60274    0.04824    0.92663    1.000
    N3007    N        0.49697    0.05501    0.90364    1.000
    Si3008   Si       0.61706    0.01412    0.95034    1.000
    N3009    N        0.63155    0.02792    0.98734    1.000
    N3010    N        0.70429    0.01911    0.93585    1.000
    Si3011   Si       0.67637    0.00932    0.90521    1.000
    N3012    N        0.66122    0.04633    0.88789    1.000
    N3013    N        0.57353    0.08874    0.04786    1.000
    Si3014   Si       0.55190    0.09825    0.08561    1.000
    N3015    N        0.51167    0.10847    0.10090    1.000
    Si3016   Si       0.58210    0.10869    0.01021    1.000
    N3017    N        0.49088    0.06571    0.00175    1.000
    N3018    N        0.58223    0.12560    0.10449    1.000
    Si3019   Si       0.62559    0.11962    0.11370    1.000
    N3020    N        0.65063    0.09177    0.01993    1.000
    Si3021   Si       0.72448    0.08208    0.03061    1.000
    N3022    N        0.65370    0.12017    0.08019    1.000
    N3023    N        0.69731    0.07241    0.06393    1.000
    Si3024   Si       0.65457    0.08090    0.06211    1.000
    N3025    N        0.67844    0.06932    0.19365    1.000
    Si3026   Si       0.58159    0.10013    0.23562    1.000
    Si3027   Si       0.50290    0.10799    0.14387    1.000
    N3028    N        0.54743    0.10708    0.20972    1.000
    N3029    N        0.52366    0.07199    0.15646    1.000
    N3030    N        0.73072    0.09515    0.15898    1.000
    N3031    N        0.63686    0.08965    0.14324    1.000
    N3032    N        0.62208    0.10419    0.21432    1.000
    Si3033   Si       0.65121    0.10109    0.18395    1.000
    N3034    N        0.50390    0.08782    0.35039    1.000
    Si3035   Si       0.51211    0.11578    0.31648    1.000
    N3036    N        0.50557    0.08282    0.28758    1.000
    Si3037   Si       0.58773    0.10127    0.31373    1.000
    N3038    N        0.59921    0.11574    0.27306    1.000
    Si3039   Si       0.53884    0.06822    0.35758    1.000
    N3040    N        0.62350    0.07750    0.32502    1.000
    Si3041   Si       0.66007    0.08780    0.30629    1.000
    N3042    N        0.66040    0.08308    0.26258    1.000
    Si3043   Si       0.72792    0.09348    0.30312    1.000
    Si3044   Si       0.63903    0.12018    0.25536    1.000
    Si3045   Si       0.59322    0.12395    0.38488    1.000
    N3046    N        0.51273    0.08862    0.42021    1.000
    Si3047   Si       0.60866    0.08728    0.44585    1.000
    N3048    N        0.57097    0.08636    0.37887    1.000
    Si3049   Si       0.54404    0.08496    0.44921    1.000
    N3050    N        0.57915    0.11477    0.46627    1.000
    N3051    N        0.52102    0.08044    0.48532    1.000
    Si3052   Si       0.73098    0.11221    0.42876    1.000
    N3053    N        0.68899    0.09986    0.42862    1.000
    N3054    N        0.62413    0.10601    0.41116    1.000
    N3055    N        0.69674    0.06822    0.31630    1.000
    Si3056   Si       0.52874    0.10282    0.51971    1.000
    N3057    N        0.51797    0.07885    0.55557    1.000
    Si3058   Si       0.59923    0.11600    0.50506    1.000
    N3059    N        0.57516    0.07721    0.58564    1.000
    Si3060   Si       0.56234    0.11841    0.57737    1.000
    N3061    N        0.56588    0.12118    0.53256    1.000
    Si3062   Si       0.61526    0.06911    0.56703    1.000
    N3063    N        0.61996    0.07967    0.52406    1.000
    Si3064   Si       0.70751    0.08531    0.55640    1.000
    N3065    N        0.68461    0.09477    0.52189    1.000
    N3066    N        0.63694    0.09875    0.59237    1.000
    Si3067   Si       0.66735    0.07599    0.61441    1.000
    N3068    N        0.73403    0.11115    0.58065    1.000
    Si3069   Si       0.51112    0.09687    0.66138    1.000
    N3070    N        0.56659    0.11050    0.69668    1.000
    N3071    N        0.54792    0.10699    0.63746    1.000
    N3072    N        0.51670    0.12381    0.74583    1.000
    Si3073   Si       0.71168    0.07922    0.74052    1.000
    Si3074   Si       0.65344    0.12058    0.67794    1.000
    N3075    N        0.68195    0.10433    0.64336    1.000
    N3076    N        0.63848    0.09706    0.71115    1.000
    Si3077   Si       0.56529    0.06635    0.69523    1.000
    Si3078   Si       0.50251    0.09579    0.77440    1.000
    N3079    N        0.58578    0.11142    0.75964    1.000
    N3080    N        0.54675    0.10186    0.85051    1.000
    Si3081   Si       0.57308    0.07100    0.77121    1.000
    N3082    N        0.53431    0.07127    0.78772    1.000
    N3083    N        0.49442    0.11786    0.81174    1.000
    N3084    N        0.67204    0.10937    0.85537    1.000
    N3085    N        0.64772    0.10897    0.78889    1.000
    Si3086   Si       0.62835    0.11907    0.75039    1.000
    N3087    N        0.72144    0.07472    0.86848    1.000
    Si3088   Si       0.68067    0.06737    0.85693    1.000
    N3089    N        0.70406    0.12160    0.75130    1.000
    Si3090   Si       0.57535    0.07434    0.94533    1.000
    Si3091   Si       0.57563    0.11639    0.88067    1.000
    N3092    N        0.60122    0.08850    0.97750    1.000
    Si3093   Si       0.51428    0.09642    0.91117    1.000
    N3094    N        0.55737    0.10164    0.91605    1.000
    Si3095   Si       0.51895    0.08514    0.97711    1.000
    N3096    N        0.54584    0.11791    0.98681    1.000
    N3097    N        0.49565    0.12507    0.88324    1.000
    N3098    N        0.49471    0.10652    0.94826    1.000
    N3099    N        0.61744    0.10699    0.89038    1.000
    Si3100   Si       0.69713    0.09813    0.95939    1.000
    N3101    N        0.71082    0.07101    0.98980    1.000
    Si3102   Si       0.63529    0.07235    0.91171    1.000
    Si3103   Si       0.71750    0.11326    0.88950    1.000
    Si3104   Si       0.63984    0.06994    0.98573    1.000
    N3105    N        0.73076    0.10085    0.93018    1.000
    N3106    N        0.65964    0.07858    0.94700    1.000
    Si3107   Si       0.64147    0.06661    0.79722    1.000
    N3108    N        0.52225    0.17180    0.09443    1.000
    Si3109   Si       0.58853    0.16770    0.11029    1.000
    Si3110   Si       0.52327    0.15014    0.00582    1.000
    N3111    N        0.60838    0.14402    0.01241    1.000
    Si3112   Si       0.49590    0.14061    0.07820    1.000
    Si3113   Si       0.58915    0.17933    0.02901    1.000
    N3114    N        0.54615    0.18326    0.02337    1.000
    N3115    N        0.50491    0.12699    0.03772    1.000
    Si3116   Si       0.71762    0.16019    0.04290    1.000
    N3117    N        0.67322    0.16163    0.03318    1.000
    N3118    N        0.71036    0.16382    0.08550    1.000
    Si3119   Si       0.66628    0.16049    0.08080    1.000
    N3120    N        0.63238    0.16351    0.11763    1.000
    Si3121   Si       0.65054    0.13335    0.00785    1.000
    N3122    N        0.49953    0.16139    0.23388    1.000
    Si3123   Si       0.52888    0.14513    0.20582    1.000
    N3124    N        0.51379    0.14649    0.16393    1.000
    N3125    N        0.55759    0.17880    0.21095    1.000
    Si3126   Si       0.52489    0.17905    0.13764    1.000
    N3127    N        0.56743    0.18161    0.14491    1.000
    N3128    N        0.73102    0.16551    0.15335    1.000
    N3129    N        0.65769    0.15704    0.24585    1.000
    N3130    N        0.67732    0.13643    0.18554    1.000
    Si3131   Si       0.66325    0.17304    0.20581    1.000
    Si3132   Si       0.71984    0.13168    0.18099    1.000
    Si3133   Si       0.57214    0.16369    0.32809    1.000
    N3134    N        0.60611    0.13981    0.34668    1.000
    Si3135   Si       0.50071    0.18056    0.35495    1.000
    N3136    N        0.55233    0.12789    0.31498    1.000
    N3137    N        0.54463    0.18344    0.35425    1.000
    Si3138   Si       0.64846    0.15024    0.34105    1.000
    Si3139   Si       0.68837    0.15592    0.27841    1.000
    Si3140   Si       0.71996    0.13939    0.36197    1.000
    N3141    N        0.66237    0.13160    0.30455    1.000
    N3142    N        0.72281    0.17767    0.33924    1.000
    N3143    N        0.72270    0.12917    0.27594    1.000
    N3144    N        0.67601    0.13452    0.36961    1.000
    N3145    N        0.49344    0.17515    0.39753    1.000
    Si3146   Si       0.56672    0.15439    0.45205    1.000
    N3147    N        0.57168    0.15214    0.40895    1.000
    N3148    N        0.52942    0.17232    0.46495    1.000
    Si3149   Si       0.66228    0.12920    0.41026    1.000
    Si3150   Si       0.63408    0.17517    0.47171    1.000
    N3151    N        0.65076    0.16331    0.43391    1.000
    N3152    N        0.73142    0.14656    0.40259    1.000
    N3153    N        0.70192    0.15625    0.49159    1.000
    N3154    N        0.49041    0.15210    0.32159    1.000
    N3155    N        0.59118    0.18460    0.46985    1.000
    N3156    N        0.58910    0.14639    0.59613    1.000
    N3157    N        0.49981    0.13669    0.51940    1.000
    N3158    N        0.52352    0.13760    0.58559    1.000
    Si3159   Si       0.53555    0.16883    0.61483    1.000
    Si3160   Si       0.51344    0.17724    0.50629    1.000
    N3161    N        0.68093    0.15377    0.55802    1.000
    Si3162   Si       0.71551    0.15039    0.58345    1.000
    Si3163   Si       0.67366    0.13628    0.51835    1.000
    N3164    N        0.64332    0.17603    0.60938    1.000
    Si3165   Si       0.62693    0.13494    0.61282    1.000
    N3166    N        0.63484    0.14106    0.50087    1.000
    Si3167   Si       0.48831    0.14457    0.72059    1.000
    N3168    N        0.57055    0.17117    0.73161    1.000
    N3169    N        0.55976    0.17062    0.65075    1.000
    Si3170   Si       0.55702    0.12968    0.73520    1.000
    Si3171   Si       0.57643    0.13140    0.65937    1.000
    N3172    N        0.49566    0.18003    0.62978    1.000
    Si3173   Si       0.68619    0.15695    0.73187    1.000
    N3174    N        0.71800    0.16202    0.62767    1.000
    Si3175   Si       0.71280    0.13171    0.65816    1.000
    N3176    N        0.68514    0.14650    0.68926    1.000
    N3177    N        0.64152    0.15831    0.73784    1.000
    N3178    N        0.61994    0.13310    0.65463    1.000
    N3179    N        0.51507    0.17739    0.83722    1.000
    Si3180   Si       0.51731    0.13402    0.84595    1.000
    N3181    N        0.64097    0.16439    0.84586    1.000
    N3182    N        0.70252    0.15220    0.80868    1.000
    Si3183   Si       0.66526    0.13561    0.81963    1.000
    Si3184   Si       0.73061    0.15408    0.77268    1.000
    Si3185   Si       0.73261    0.16679    0.83593    1.000
    N3186    N        0.56865    0.16039    0.87568    1.000
    Si3187   Si       0.59046    0.18262    0.90858    1.000
    Si3188   Si       0.66715    0.16359    0.93980    1.000
    N3189    N        0.67781    0.13694    0.97155    1.000
    Si3190   Si       0.64758    0.13977    0.88280    1.000
    N3191    N        0.63167    0.16663    0.91582    1.000
    N3192    N        0.68990    0.14567    0.90494    1.000
    N3193    N        0.48973    0.16146    0.98172    1.000
    Si3194   Si       0.54099    0.19722    0.06457    1.000
    N3195    N        0.52452    0.23709    0.06685    1.000
    N3196    N        0.58541    0.19020    0.07310    1.000
    Si3197   Si       0.61512    0.22260    0.07619    1.000
    N3198    N        0.61831    0.21168    0.02110    1.000
    N3199    N        0.65684    0.20958    0.07263    1.000
    Si3200   Si       0.66105    0.20200    0.02776    1.000
    N3201    N        0.68327    0.22683    0.00422    1.000
    Si3202   Si       0.68152    0.23630    0.09698    1.000
    N3203    N        0.71783    0.24058    0.07474    1.000
    N3204    N        0.61469    0.22881    0.11918    1.000
    N3205    N        0.50005    0.21418    0.14763    1.000
    N3206    N        0.50397    0.22954    0.21546    1.000
    Si3207   Si       0.58549    0.19471    0.18285    1.000
    Si3208   Si       0.53129    0.20300    0.23688    1.000
    N3209    N        0.58492    0.23844    0.17998    1.000
    N3210    N        0.56567    0.23642    0.24533    1.000
    N3211    N        0.67991    0.21931    0.13969    1.000
    Si3212   Si       0.69238    0.23548    0.17999    1.000
    N3213    N        0.69283    0.20595    0.21123    1.000
    Si3214   Si       0.63920    0.20009    0.13917    1.000
    N3215    N        0.62937    0.18704    0.18047    1.000
    N3216    N        0.58783    0.19834    0.30580    1.000
    Si3217   Si       0.56083    0.22754    0.28704    1.000
    N3218    N        0.52192    0.20665    0.27849    1.000
    Si3219   Si       0.61696    0.21541    0.33642    1.000
    N3220    N        0.70469    0.19593    0.28101    1.000
    Si3221   Si       0.69323    0.21440    0.33790    1.000
    N3222    N        0.65354    0.19328    0.33660    1.000
    Si3223   Si       0.69583    0.22454    0.24962    1.000
    N3224    N        0.60313    0.21585    0.37738    1.000
    N3225    N        0.54284    0.21578    0.41297    1.000
    Si3226   Si       0.51026    0.19474    0.43189    1.000
    Si3227   Si       0.56906    0.19238    0.38815    1.000
    Si3228   Si       0.56449    0.21742    0.49080    1.000
    N3229    N        0.53328    0.24267    0.47165    1.000
    Si3230   Si       0.69768    0.20056    0.48382    1.000
    N3231    N        0.70320    0.23041    0.37786    1.000
    Si3232   Si       0.73498    0.18655    0.42248    1.000
    N3233    N        0.70327    0.21116    0.44301    1.000
    N3234    N        0.65573    0.20580    0.49408    1.000
    Si3235   Si       0.49174    0.24404    0.49160    1.000
    N3236    N        0.54042    0.20452    0.52508    1.000
    N3237    N        0.55522    0.19969    0.58888    1.000
    Si3238   Si       0.54016    0.22799    0.56076    1.000
    N3239    N        0.50202    0.23642    0.58554    1.000
    Si3240   Si       0.59787    0.19078    0.59143    1.000
    N3241    N        0.59557    0.24466    0.50204    1.000
    N3242    N        0.61997    0.20545    0.55567    1.000
    N3243    N        0.68615    0.22079    0.57480    1.000
    Si3244   Si       0.63243    0.22932    0.52127    1.000
    N3245    N        0.72203    0.21836    0.51541    1.000
    Si3246   Si       0.65716    0.18808    0.56989    1.000
    Si3247   Si       0.69119    0.24196    0.61241    1.000
    N3248    N        0.50126    0.18621    0.72022    1.000
    N3249    N        0.60139    0.22086    0.62589    1.000
    Si3250   Si       0.54151    0.20358    0.73131    1.000
    Si3251   Si       0.57431    0.21175    0.66359    1.000
    N3252    N        0.55233    0.22784    0.69726    1.000
    Si3253   Si       0.61252    0.18742    0.72636    1.000
    N3254    N        0.61344    0.19952    0.68406    1.000
    N3255    N        0.73387    0.23417    0.62066    1.000
    N3256    N        0.66798    0.23234    0.64649    1.000
    N3257    N        0.67274    0.24112    0.71764    1.000
    Si3258   Si       0.63613    0.20221    0.64495    1.000
    N3259    N        0.70888    0.18816    0.74965    1.000
    N3260    N        0.54329    0.22624    0.76939    1.000
    Si3261   Si       0.58381    0.22873    0.78454    1.000
    N3262    N        0.58328    0.20222    0.82022    1.000
    Si3263   Si       0.55207    0.19467    0.84928    1.000
    N3264    N        0.53793    0.23624    0.85884    1.000
    N3265    N        0.61388    0.22104    0.75341    1.000
    Si3266   Si       0.61894    0.20237    0.84716    1.000
    N3267    N        0.71963    0.19980    0.86132    1.000
    N3268    N        0.64147    0.23908    0.83541    1.000
    Si3269   Si       0.73441    0.24092    0.86347    1.000
    Si3270   Si       0.70262    0.22933    0.96542    1.000
    N3271    N        0.56410    0.19647    0.93816    1.000
    Si3272   Si       0.54479    0.23191    0.95445    1.000
    N3273    N        0.50109    0.23084    0.96613    1.000
    N3274    N        0.59986    0.21522    0.88330    1.000
    N3275    N        0.69027    0.20157    0.93638    1.000
    Si3276   Si       0.71306    0.18653    0.90193    1.000
    Si3277   Si       0.70461    0.23299    0.74681    1.000
    Si3278   Si       0.55413    0.27050    0.07666    1.000
    N3279    N        0.59077    0.25579    0.05825    1.000
    Si3280   Si       0.59981    0.24996    0.01407    1.000
    N3281    N        0.55945    0.27497    0.11950    1.000
    N3282    N        0.66748    0.27718    0.10090    1.000
    N3283    N        0.63357    0.27589    0.00468    1.000
    N3284    N        0.69533    0.29341    0.03454    1.000
    Si3285   Si       0.73245    0.27382    0.05150    1.000
    Si3286   Si       0.67455    0.27068    0.00257    1.000
    Si3287   Si       0.59175    0.25859    0.14282    1.000
    Si3288   Si       0.57396    0.26488    0.21432    1.000
    N3289    N        0.54190    0.28721    0.19195    1.000
    N3290    N        0.60572    0.29393    0.22605    1.000
    Si3291   Si       0.53428    0.29452    0.15012    1.000
    N3292    N        0.49640    0.28067    0.13227    1.000
    N3293    N        0.61504    0.29454    0.14363    1.000
    Si3294   Si       0.64503    0.27383    0.22529    1.000
    Si3295   Si       0.65826    0.28510    0.14183    1.000
    N3296    N        0.72224    0.26753    0.18653    1.000
    N3297    N        0.66016    0.26467    0.18394    1.000
    N3298    N        0.55672    0.26557    0.30942    1.000
    Si3299   Si       0.59169    0.28606    0.32788    1.000
    Si3300   Si       0.52329    0.29064    0.29808    1.000
    N3301    N        0.51740    0.29373    0.25537    1.000
    N3302    N        0.62386    0.25567    0.31789    1.000
    Si3303   Si       0.65758    0.26508    0.29412    1.000
    N3304    N        0.69084    0.25362    0.32072    1.000
    N3305    N        0.72845    0.25386    0.25628    1.000
    Si3306   Si       0.69814    0.29591    0.32817    1.000
    N3307    N        0.65759    0.24681    0.25578    1.000
    N3308    N        0.59324    0.28550    0.37152    1.000
    N3309    N        0.53226    0.28944    0.40744    1.000
    Si3310   Si       0.54616    0.25520    0.43085    1.000
    Si3311   Si       0.59344    0.27755    0.47281    1.000
    N3312    N        0.58710    0.26756    0.43148    1.000
    Si3313   Si       0.61073    0.25323    0.39585    1.000
    Si3314   Si       0.49108    0.29784    0.39859    1.000
    Si3315   Si       0.68948    0.24397    0.41900    1.000
    N3316    N        0.65013    0.26232    0.41427    1.000
    N3317    N        0.69988    0.27724    0.44744    1.000
    N3318    N        0.63404    0.29248    0.47399    1.000
    Si3319   Si       0.66016    0.29559    0.44067    1.000
    Si3320   Si       0.73487    0.29970    0.46245    1.000
    Si3321   Si       0.74767    0.26371    0.29276    1.000
    N3322    N        0.56825    0.26329    0.57171    1.000
    N3323    N        0.50676    0.26934    0.52685    1.000
    Si3324   Si       0.58446    0.25884    0.61280    1.000
    Si3325   Si       0.57832    0.30592    0.56424    1.000
    N3326    N        0.61326    0.29251    0.61528    1.000
    N3327    N        0.64743    0.29036    0.67376    1.000
    Si3328   Si       0.73498    0.29010    0.71061    1.000
    N3329    N        0.66013    0.26189    0.53046    1.000
    N3330    N        0.72693    0.27740    0.55360    1.000
    N3331    N        0.68987    0.28577    0.61146    1.000
    Si3332   Si       0.64539    0.29852    0.51485    1.000
    Si3333   Si       0.70106    0.24588    0.54354    1.000
    Si3334   Si       0.72418    0.30401    0.59100    1.000
    N3335    N        0.52562    0.29674    0.69151    1.000
    Si3336   Si       0.52631    0.25566    0.67600    1.000
    N3337    N        0.55021    0.25576    0.64022    1.000
    N3338    N        0.74031    0.25430    0.73325    1.000
    N3339    N        0.71659    0.27770    0.67200    1.000
    Si3340   Si       0.67838    0.26007    0.67900    1.000
    N3341    N        0.61904    0.28886    0.73695    1.000
    N3342    N        0.59523    0.26961    0.79807    1.000
    N3343    N        0.50911    0.28272    0.81436    1.000
    Si3344   Si       0.52005    0.26465    0.77630    1.000
    Si3345   Si       0.50217    0.25750    0.84865    1.000
    N3346    N        0.54595    0.29182    0.75572    1.000
    Si3347   Si       0.58878    0.29756    0.76689    1.000
    N3348    N        0.59187    0.28362    0.86956    1.000
    Si3349   Si       0.61621    0.27595    0.83440    1.000
    N3350    N        0.71322    0.26629    0.83835    1.000
    Si3351   Si       0.67429    0.26508    0.81864    1.000
    N3352    N        0.67649    0.25278    0.77801    1.000
    Si3353   Si       0.64239    0.25309    0.74835    1.000
    N3354    N        0.65133    0.30233    0.82532    1.000
    N3355    N        0.49173    0.29784    0.94611    1.000
    Si3356   Si       0.56862    0.24988    0.88593    1.000
    N3357    N        0.56718    0.24828    0.98648    1.000
    N3358    N        0.49983    0.29303    0.87585    1.000
    N3359    N        0.54678    0.26199    0.92089    1.000
    Si3360   Si       0.51916    0.29662    0.91283    1.000
    N3361    N        0.73066    0.25248    0.90461    1.000
    N3362    N        0.70215    0.27502    0.96719    1.000
    Si3363   Si       0.71520    0.28821    0.92749    1.000
    N3364    N        0.61730    0.30626    0.92831    1.000
    N3365    N        0.50377    0.33384    0.00775    1.000
    N3366    N        0.59000    0.33458    0.00529    1.000
    Si3367   Si       0.54676    0.33435    0.01740    1.000
    Si3368   Si       0.49366    0.30923    0.04395    1.000
    N3369    N        0.53936    0.30529    0.05070    1.000
    N3370    N        0.60141    0.36136    0.11416    1.000
    Si3371   Si       0.67580    0.30796    0.07076    1.000
    N3372    N        0.63884    0.32676    0.05460    1.000
    N3373    N        0.69735    0.34357    0.09134    1.000
    Si3374   Si       0.62990    0.31824    0.01284    1.000
    Si3375   Si       0.59452    0.33248    0.14612    1.000
    N3376    N        0.55015    0.33695    0.14715    1.000
    Si3377   Si       0.60382    0.33755    0.22604    1.000
    N3378    N        0.50052    0.34515    0.19549    1.000
    Si3379   Si       0.52939    0.32104    0.22238    1.000
    N3380    N        0.56082    0.34674    0.23589    1.000
    N3381    N        0.61078    0.35203    0.18494    1.000
    Si3382   Si       0.69957    0.35187    0.13630    1.000
    N3383    N        0.68693    0.31400    0.15376    1.000
    N3384    N        0.67205    0.30775    0.23089    1.000
    N3385    N        0.72592    0.33270    0.20587    1.000
    Si3386   Si       0.69558    0.30277    0.19456    1.000
    Si3387   Si       0.62454    0.36355    0.07538    1.000
    N3388    N        0.52603    0.32598    0.31964    1.000
    N3389    N        0.59565    0.32746    0.31627    1.000
    Si3390   Si       0.56010    0.35172    0.31654    1.000
    Si3391   Si       0.67097    0.33514    0.26548    1.000
    N3392    N        0.63385    0.35757    0.25376    1.000
    N3393    N        0.70371    0.36011    0.27489    1.000
    N3394    N        0.70441    0.31302    0.36634    1.000
    N3395    N        0.66536    0.30669    0.30015    1.000
    N3396    N        0.73623    0.30281    0.30834    1.000
    N3397    N        0.66148    0.33503    0.42672    1.000
    N3398    N        0.64419    0.35930    0.37227    1.000
    N3399    N        0.59178    0.33728    0.42283    1.000
    Si3400   Si       0.57420    0.34475    0.46483    1.000
    N3401    N        0.56088    0.30673    0.47930    1.000
    N3402    N        0.49401    0.32713    0.49533    1.000
    Si3403   Si       0.68423    0.34469    0.39054    1.000
    Si3404   Si       0.62799    0.35966    0.41349    1.000
    Si3405   Si       0.57265    0.30293    0.40515    1.000
    N3406    N        0.56630    0.32886    0.60073    1.000
    N3407    N        0.54426    0.32585    0.54167    1.000
    Si3408   Si       0.52745    0.33539    0.58004    1.000
    N3409    N        0.61196    0.31460    0.53876    1.000
    N3410    N        0.73541    0.32059    0.50277    1.000
    Si3411   Si       0.62129    0.35383    0.52297    1.000
    N3412    N        0.71551    0.34455    0.57550    1.000
    N3413    N        0.66454    0.33710    0.51943    1.000
    Si3414   Si       0.70454    0.34050    0.53197    1.000
    Si3415   Si       0.52283    0.31869    0.73044    1.000
    Si3416   Si       0.59784    0.33489    0.62973    1.000
    N3417    N        0.53862    0.35415    0.71174    1.000
    Si3418   Si       0.54528    0.33139    0.67410    1.000
    N3419    N        0.51563    0.34529    0.64557    1.000
    N3420    N        0.58902    0.32156    0.67387    1.000
    Si3421   Si       0.62182    0.31429    0.70154    1.000
    N3422    N        0.70972    0.31997    0.72955    1.000
    N3423    N        0.64577    0.34889    0.71423    1.000
    N3424    N        0.64096    0.34513    0.63314    1.000
    Si3425   Si       0.68951    0.35693    0.71863    1.000
    N3426    N        0.50031    0.30485    0.59269    1.000
    Si3427   Si       0.52830    0.30434    0.50791    1.000
    Si3428   Si       0.65257    0.30189    0.63104    1.000
    N3429    N        0.59159    0.33474    0.78886    1.000
    N3430    N        0.53964    0.34143    0.84213    1.000
    Si3431   Si       0.50264    0.31845    0.83808    1.000
    Si3432   Si       0.56152    0.35633    0.80970    1.000
    Si3433   Si       0.49152    0.36145    0.78083    1.000
    N3434    N        0.73667    0.33343    0.86555    1.000
    Si3435   Si       0.66862    0.34215    0.82160    1.000
    N3436    N        0.70787    0.33033    0.80377    1.000
    Si3437   Si       0.72340    0.34262    0.76560    1.000
    N3438    N        0.66936    0.35833    0.86239    1.000
    Si3439   Si       0.73145    0.30571    0.83139    1.000
    N3440    N        0.59804    0.35062    0.87251    1.000
    N3441    N        0.55095    0.32970    0.90864    1.000
    Si3442   Si       0.59045    0.31547    0.89748    1.000
    Si3443   Si       0.55552    0.36098    0.87797    1.000
    N3444    N        0.72866    0.34118    0.98897    1.000
    Si3445   Si       0.69112    0.36065    0.99272    1.000
    N3446    N        0.68624    0.31641    0.91511    1.000
    N3447    N        0.65842    0.33506    0.98585    1.000
    Si3448   Si       0.65188    0.32852    0.94114    1.000
    Si3449   Si       0.70410    0.34982    0.88863    1.000
    N3450    N        0.60324    0.38794    0.04587    1.000
    Si3451   Si       0.58901    0.37984    0.00476    1.000
    N3452    N        0.56278    0.41535    0.09405    1.000
    N3453    N        0.54631    0.37896    0.00518    1.000
    Si3454   Si       0.67943    0.42094    0.01036    1.000
    N3455    N        0.64225    0.41783    0.20228    1.000
    N3456    N        0.65526    0.39273    0.08901    1.000
    Si3457   Si       0.69388    0.38259    0.07290    1.000
    N3458    N        0.68846    0.38315    0.02996    1.000
    N3459    N        0.72443    0.41432    0.07853    1.000
    Si3460   Si       0.64034    0.42184    0.11585    1.000
    Si3461   Si       0.57830    0.39404    0.12916    1.000
    N3462    N        0.54429    0.40185    0.15960    1.000
    N3463    N        0.53226    0.41335    0.22743    1.000
    N3464    N        0.61138    0.41507    0.14821    1.000
    Si3465   Si       0.52072    0.36609    0.15925    1.000
    N3466    N        0.71082    0.40655    0.19804    1.000
    N3467    N        0.67061    0.37792    0.15494    1.000
    Si3468   Si       0.69954    0.41336    0.15757    1.000
    N3469    N        0.73127    0.38338    0.13987    1.000
    Si3470   Si       0.63259    0.38626    0.17278    1.000
    N3471    N        0.54371    0.38323    0.29251    1.000
    Si3472   Si       0.51009    0.40344    0.31155    1.000
    N3473    N        0.57631    0.37502    0.35160    1.000
    N3474    N        0.59239    0.40904    0.25247    1.000
    Si3475   Si       0.55533    0.38666    0.25187    1.000
    Si3476   Si       0.56335    0.41383    0.36525    1.000
    N3477    N        0.62929    0.39538    0.31380    1.000
    Si3478   Si       0.70539    0.40264    0.28169    1.000
    Si3479   Si       0.63089    0.39710    0.26862    1.000
    Si3480   Si       0.54814    0.41380    0.45010    1.000
    N3481    N        0.54201    0.37277    0.46597    1.000
    Si3482   Si       0.50306    0.37162    0.48955    1.000
    N3483    N        0.56205    0.41639    0.40834    1.000
    N3484    N        0.60793    0.36488    0.48489    1.000
    Si3485   Si       0.62070    0.40271    0.46855    1.000
    Si3486   Si       0.67707    0.41213    0.41161    1.000
    N3487    N        0.63205    0.40282    0.42502    1.000
    N3488    N        0.70782    0.37722    0.40567    1.000
    N3489    N        0.64894    0.42345    0.49415    1.000
    Si3490   Si       0.61729    0.35973    0.33822    1.000
    N3491    N        0.51123    0.37560    0.58758    1.000
    N3492    N        0.51073    0.40088    0.52369    1.000
    Si3493   Si       0.51974    0.41317    0.56467    1.000
    Si3494   Si       0.59710    0.41101    0.57868    1.000
    N3495    N        0.61654    0.38651    0.54893    1.000
    N3496    N        0.71698    0.37941    0.51630    1.000
    Si3497   Si       0.72755    0.38049    0.59973    1.000
    Si3498   Si       0.71176    0.41523    0.53755    1.000
    N3499    N        0.69148    0.39265    0.61935    1.000
    N3500    N        0.62809    0.41684    0.60942    1.000
    Si3501   Si       0.73412    0.40024    0.67039    1.000
    Si3502   Si       0.53382    0.38076    0.62657    1.000
    N3503    N        0.57542    0.37374    0.64034    1.000
    Si3504   Si       0.60501    0.40510    0.64598    1.000
    Si3505   Si       0.55287    0.38468    0.74064    1.000
    N3506    N        0.59568    0.38509    0.74140    1.000
    N3507    N        0.64872    0.41593    0.74403    1.000
    N3508    N        0.70018    0.37768    0.68215    1.000
    N3509    N        0.63598    0.39970    0.67406    1.000
    Si3510   Si       0.62973    0.39009    0.71529    1.000
    Si3511   Si       0.66808    0.37659    0.65262    1.000
    N3512    N        0.58705    0.39510    0.81349    1.000
    N3513    N        0.53505    0.36783    0.77625    1.000
    Si3514   Si       0.51087    0.41759    0.86714    1.000
    Si3515   Si       0.60986    0.37375    0.78185    1.000
    N3516    N        0.55140    0.40370    0.87058    1.000
    Si3517   Si       0.67640    0.40274    0.77581    1.000
    N3518    N        0.65159    0.37262    0.79766    1.000
    N3519    N        0.73171    0.39741    0.85058    1.000
    N3520    N        0.70227    0.37754    0.75317    1.000
    N3521    N        0.62378    0.41339    0.87455    1.000
    N3522    N        0.60980    0.40911    0.97931    1.000
    Si3523   Si       0.50520    0.38116    0.99640    1.000
    N3524    N        0.72104    0.37583    0.91627    1.000
    N3525    N        0.64082    0.36746    0.92511    1.000
    Si3526   Si       0.64178    0.40426    0.94909    1.000
    Si3527   Si       0.63426    0.37299    0.88337    1.000
    N3528    N        0.68096    0.39885    0.97133    1.000
    Si3529   Si       0.70314    0.41106    0.93479    1.000
    N3530    N        0.49959    0.41995    0.82467    1.000
    N3531    N        0.57453    0.44759    0.02962    1.000
    Si3532   Si       0.53484    0.44547    0.10910    1.000
    N3533    N        0.52015    0.46944    0.07416    1.000
    Si3534   Si       0.59272    0.42465    0.06300    1.000
    Si3535   Si       0.53994    0.47389    0.03662    1.000
    Si3536   Si       0.60816    0.44733    0.00057    1.000
    Si3537   Si       0.59972    0.47711    0.11743    1.000
    N3538    N        0.61919    0.45025    0.08922    1.000
    N3539    N        0.64532    0.44472    0.02287    1.000
    N3540    N        0.71255    0.44592    0.01788    1.000
    Si3541   Si       0.64886    0.47043    0.06008    1.000
    N3542    N        0.49533    0.44364    0.12452    1.000
    N3543    N        0.58159    0.45451    0.19844    1.000
    Si3544   Si       0.54240    0.43185    0.19070    1.000
    N3545    N        0.52172    0.46967    0.18723    1.000
    N3546    N        0.56007    0.47108    0.13334    1.000
    Si3547   Si       0.58361    0.44950    0.24155    1.000
    Si3548   Si       0.49108    0.47524    0.15683    1.000
    Si3549   Si       0.69413    0.47357    0.12938    1.000
    Si3550   Si       0.62041    0.44596    0.17951    1.000
    Si3551   Si       0.73388    0.46768    0.18762    1.000
    Si3552   Si       0.68039    0.42754    0.22209    1.000
    N3553    N        0.66914    0.43986    0.14230    1.000
    N3554    N        0.72714    0.45185    0.14731    1.000
    N3555    N        0.70073    0.46675    0.21792    1.000
    N3556    N        0.54825    0.46541    0.26053    1.000
    N3557    N        0.59944    0.43903    0.36282    1.000
    Si3558   Si       0.51131    0.44435    0.25097    1.000
    N3559    N        0.52381    0.42639    0.34885    1.000
    Si3560   Si       0.60186    0.47873    0.33973    1.000
    N3561    N        0.61572    0.47415    0.25890    1.000
    Si3562   Si       0.65130    0.45920    0.28057    1.000
    Si3563   Si       0.70810    0.44479    0.35305    1.000
    N3564    N        0.64080    0.46612    0.32339    1.000
    Si3565   Si       0.63773    0.42679    0.34404    1.000
    N3566    N        0.66687    0.42195    0.26560    1.000
    N3567    N        0.67232    0.42855    0.36975    1.000
    N3568    N        0.71711    0.41973    0.31893    1.000
    Si3569   Si       0.49223    0.44036    0.37518    1.000
    N3570    N        0.49996    0.46860    0.40450    1.000
    Si3571   Si       0.58975    0.47234    0.46508    1.000
    Si3572   Si       0.60316    0.43249    0.40857    1.000
    N3573    N        0.51077    0.43562    0.46222    1.000
    N3574    N        0.58522    0.42842    0.46873    1.000
    N3575    N        0.61243    0.47052    0.42674    1.000
    Si3576   Si       0.67829    0.45165    0.48037    1.000
    N3577    N        0.69177    0.44094    0.43915    1.000
    Si3578   Si       0.72873    0.46139    0.42609    1.000
    Si3579   Si       0.50597    0.44222    0.50641    1.000
    N3580    N        0.49444    0.44697    0.57289    1.000
    N3581    N        0.53300    0.47355    0.51733    1.000
    N3582    N        0.60894    0.45052    0.55549    1.000
    N3583    N        0.55603    0.41899    0.59046    1.000
    N3584    N        0.71191    0.44491    0.50707    1.000
    Si3585   Si       0.63786    0.42395    0.53585    1.000
    N3586    N        0.68160    0.46086    0.61829    1.000
    Si3587   Si       0.66977    0.42380    0.60049    1.000
    Si3588   Si       0.55116    0.44516    0.62635    1.000
    N3589    N        0.59967    0.46499    0.72229    1.000
    N3590    N        0.58473    0.44235    0.65289    1.000
    Si3591   Si       0.55757    0.45810    0.73652    1.000
    Si3592   Si       0.60096    0.47470    0.67875    1.000
    N3593    N        0.53514    0.42083    0.72925    1.000
    Si3594   Si       0.49194    0.42302    0.73184    1.000
    Si3595   Si       0.63656    0.45940    0.74494    1.000
    N3596    N        0.73512    0.44509    0.66890    1.000
    Si3597   Si       0.71867    0.47653    0.64064    1.000
    N3598    N        0.67476    0.42290    0.55777    1.000
    N3599    N        0.52192    0.41826    0.64615    1.000
    N3600    N        0.58799    0.46319    0.84378    1.000
    N3601    N        0.56312    0.46163    0.77937    1.000
    Si3602   Si       0.58714    0.41964    0.85030    1.000
    N3603    N        0.66712    0.43238    0.92099    1.000
    N3604    N        0.73722    0.46715    0.84994    1.000
    Si3605   Si       0.66801    0.46771    0.81632    1.000
    N3606    N        0.68943    0.43178    0.80440    1.000
    N3607    N        0.66909    0.46730    0.85894    1.000
    N3608    N        0.63337    0.46835    0.78924    1.000
    Si3609   Si       0.73174    0.43201    0.82367    1.000
    N3610    N        0.72923    0.46123    0.75356    1.000
    Si3611   Si       0.52126    0.46316    0.92480    1.000
    N3612    N        0.51269    0.45936    0.88177    1.000
    N3613    N        0.56185    0.47034    0.93184    1.000
    N3614    N        0.50040    0.43316    0.94744    1.000
    Si3615   Si       0.48489    0.45063    0.98569    1.000
    Si3616   Si       0.64334    0.44913    0.88851    1.000
    Si3617   Si       0.59317    0.48061    0.80414    1.000
    N3618    N        0.56326    0.50938    0.03840    1.000
    Si3619   Si       0.59955    0.52488    0.05690    1.000
    N3620    N        0.59975    0.51849    0.10044    1.000
    N3621    N        0.51315    0.47989    0.00189    1.000
    Si3622   Si       0.71623    0.50531    0.07240    1.000
    N3623    N        0.70766    0.51433    0.03068    1.000
    N3624    N        0.63376    0.50478    0.03838    1.000
    N3625    N        0.68350    0.47819    0.08608    1.000
    Si3626   Si       0.71918    0.48488    0.00120    1.000
    Si3627   Si       0.64606    0.50478    0.99759    1.000
    Si3628   Si       0.64644    0.51424    0.17217    1.000
    Si3629   Si       0.56295    0.48618    0.17403    1.000
    N3630    N        0.57101    0.52863    0.17072    1.000
    N3631    N        0.62062    0.48292    0.15560    1.000
    N3632    N        0.68402    0.51294    0.14681    1.000
    N3633    N        0.64042    0.51906    0.21475    1.000
    N3634    N        0.70634    0.53565    0.23140    1.000
    Si3635   Si       0.71022    0.49601    0.24844    1.000
    N3636    N        0.51195    0.51436    0.29315    1.000
    N3637    N        0.57838    0.50446    0.31208    1.000
    Si3638   Si       0.55350    0.50443    0.27784    1.000
    Si3639   Si       0.57370    0.53559    0.34366    1.000
    N3640    N        0.59841    0.50957    0.37067    1.000
    N3641    N        0.57441    0.52543    0.24332    1.000
    Si3642   Si       0.61686    0.51662    0.25031    1.000
    Si3643   Si       0.67154    0.50220    0.32101    1.000
    N3644    N        0.68063    0.49133    0.28078    1.000
    N3645    N        0.70566    0.48639    0.34336    1.000
    N3646    N        0.65373    0.52448    0.41898    1.000
    Si3647   Si       0.51175    0.47628    0.44608    1.000
    N3648    N        0.55235    0.49040    0.44937    1.000
    Si3649   Si       0.55193    0.53349    0.45157    1.000
    Si3650   Si       0.61137    0.51146    0.41257    1.000
    N3651    N        0.71825    0.50306    0.42721    1.000
    Si3652   Si       0.68378    0.51713    0.44919    1.000
    N3653    N        0.66270    0.49270    0.47826    1.000
    N3654    N        0.57311    0.52141    0.55519    1.000
    Si3655   Si       0.55979    0.50717    0.51662    1.000
    N3656    N        0.60822    0.49664    0.60572    1.000
    Si3657   Si       0.60881    0.49150    0.56472    1.000
    Si3658   Si       0.49705    0.48204    0.59668    1.000
    N3659    N        0.54008    0.48313    0.61334    1.000
    Si3660   Si       0.66581    0.50307    0.69107    1.000
    N3661    N        0.71531    0.53506    0.55659    1.000
    Si3662   Si       0.67237    0.53661    0.57200    1.000
    N3663    N        0.64311    0.51357    0.54853    1.000
    N3664    N        0.66784    0.52517    0.61364    1.000
    Si3665   Si       0.63807    0.51584    0.50546    1.000
    Si3666   Si       0.72808    0.53735    0.51524    1.000
    Si3667   Si       0.57207    0.50997    0.62303    1.000
    N3668    N        0.51258    0.53139    0.66700    1.000
    Si3669   Si       0.54501    0.52211    0.69356    1.000
    N3670    N        0.57678    0.50960    0.66675    1.000
    N3671    N        0.53211    0.48731    0.71618    1.000
    N3672    N        0.72076    0.52894    0.73439    1.000
    Si3673   Si       0.73747    0.52629    0.69360    1.000
    N3674    N        0.63980    0.48460    0.66577    1.000
    Si3675   Si       0.64753    0.48863    0.62356    1.000
    N3676    N        0.70446    0.50651    0.66959    1.000
    N3677    N        0.66596    0.48609    0.73012    1.000
    Si3678   Si       0.49300    0.49487    0.73160    1.000
    N3679    N        0.59771    0.49885    0.49911    1.000
    N3680    N        0.59251    0.52271    0.81099    1.000
    N3681    N        0.52325    0.51516    0.82809    1.000
    Si3682   Si       0.50029    0.49050    0.85605    1.000
    N3683    N        0.49691    0.52742    0.75913    1.000
    Si3684   Si       0.60155    0.50192    0.86391    1.000
    Si3685   Si       0.48937    0.51770    0.80075    1.000
    N3686    N        0.61811    0.48187    0.89998    1.000
    N3687    N        0.69928    0.53004    0.85888    1.000
    N3688    N        0.69305    0.49960    0.79865    1.000
    Si3689   Si       0.70080    0.49442    0.75555    1.000
    N3690    N        0.63379    0.53020    0.85668    1.000
    Si3691   Si       0.70577    0.48812    0.87166    1.000
    Si3692   Si       0.69457    0.52020    0.94494    1.000
    N3693    N        0.57013    0.53015    0.87486    1.000
    N3694    N        0.50067    0.49895    0.94052    1.000
    Si3695   Si       0.59815    0.49412    0.93680    1.000
    Si3696   Si       0.50913    0.51823    0.97797    1.000
    N3697    N        0.59809    0.53757    0.93853    1.000
    N3698    N        0.61374    0.48318    0.97605    1.000
    N3699    N        0.72017    0.50043    0.91248    1.000
    N3700    N        0.68452    0.49112    0.97619    1.000
    Si3701   Si       0.73752    0.53957    0.89349    1.000
    N3702    N        0.65973    0.53711    0.92382    1.000
    N3703    N        0.58486    0.56346    0.04668    1.000
    N3704    N        0.51535    0.56969    0.04208    1.000
    Si3705   Si       0.55041    0.54864    0.02369    1.000
    N3706    N        0.58558    0.58013    0.11823    1.000
    N3707    N        0.67717    0.58550    0.11102    1.000
    Si3708   Si       0.69347    0.55009    0.01052    1.000
    N3709    N        0.69701    0.58495    0.03889    1.000
    Si3710   Si       0.70835    0.58249    0.08049    1.000
    N3711    N        0.72713    0.54395    0.08879    1.000
    N3712    N        0.52331    0.57968    0.15050    1.000
    N3713    N        0.52688    0.57011    0.21746    1.000
    Si3714   Si       0.56572    0.55054    0.20778    1.000
    N3715    N        0.58803    0.58742    0.20045    1.000
    Si3716   Si       0.59624    0.54154    0.13773    1.000
    Si3717   Si       0.50148    0.59570    0.18934    1.000
    Si3718   Si       0.49013    0.55435    0.13363    1.000
    N3719    N        0.63450    0.55407    0.15676    1.000
    N3720    N        0.70458    0.57233    0.17453    1.000
    N3721    N        0.65631    0.58623    0.22025    1.000
    Si3722   Si       0.73216    0.54739    0.19721    1.000
    Si3723   Si       0.62815    0.58422    0.18812    1.000
    Si3724   Si       0.67871    0.55596    0.14170    1.000
    Si3725   Si       0.58072    0.59417    0.07674    1.000
    N3726    N        0.59581    0.57100    0.33068    1.000
    Si3727   Si       0.50526    0.54911    0.31951    1.000
    N3728    N        0.53435    0.54997    0.35211    1.000
    N3729    N        0.49658    0.58032    0.29077    1.000
    Si3730   Si       0.51021    0.59315    0.25144    1.000
    Si3731   Si       0.63582    0.56931    0.31240    1.000
    N3732    N        0.69244    0.58162    0.27781    1.000
    Si3733   Si       0.73310    0.57778    0.29742    1.000
    N3734    N        0.63485    0.54669    0.27511    1.000
    N3735    N        0.73633    0.59459    0.33651    1.000
    Si3736   Si       0.66965    0.55643    0.24947    1.000
    N3737    N        0.65901    0.53943    0.33793    1.000
    Si3738   Si       0.53112    0.57193    0.38980    1.000
    Si3739   Si       0.60448    0.58426    0.41755    1.000
    N3740    N        0.52159    0.55018    0.42600    1.000
    N3741    N        0.58888    0.54534    0.43149    1.000
    N3742    N        0.57056    0.59297    0.39098    1.000
    N3743    N        0.54208    0.53996    0.49447    1.000
    Si3744   Si       0.66136    0.54747    0.38102    1.000
    N3745    N        0.68271    0.59999    0.44721    1.000
    Si3746   Si       0.71819    0.58162    0.46398    1.000
    N3747    N        0.70294    0.54342    0.47936    1.000
    N3748    N        0.70181    0.56076    0.39311    1.000
    Si3749   Si       0.64933    0.59110    0.47554    1.000
    N3750    N        0.64272    0.58515    0.39364    1.000
    Si3751   Si       0.56580    0.55986    0.57128    1.000
    N3752    N        0.52558    0.57063    0.55651    1.000
    Si3753   Si       0.51677    0.56975    0.51384    1.000
    N3754    N        0.55880    0.55043    0.61358    1.000
    N3755    N        0.59623    0.59035    0.55835    1.000
    N3756    N        0.49453    0.57901    0.62151    1.000
    N3757    N        0.66199    0.57937    0.56831    1.000
    Si3758   Si       0.63316    0.58463    0.53648    1.000
    N3759    N        0.63495    0.55859    0.50088    1.000
    N3760    N        0.49595    0.58804    0.72920    1.000
    Si3761   Si       0.58725    0.58149    0.72445    1.000
    Si3762   Si       0.52776    0.56472    0.64509    1.000
    N3763    N        0.55771    0.54868    0.72488    1.000
    N3764    N        0.60807    0.58938    0.68629    1.000
    Si3765   Si       0.64805    0.58295    0.70087    1.000
    N3766    N        0.66073    0.54618    0.68510    1.000
    Si3767   Si       0.73772    0.58625    0.64010    1.000
    N3768    N        0.63147    0.58297    0.74140    1.000
    Si3769   Si       0.68575    0.54214    0.64909    1.000
    N3770    N        0.69540    0.58006    0.63116    1.000
    N3771    N        0.54741    0.56731    0.78682    1.000
    N3772    N        0.54382    0.58161    0.84751    1.000
    Si3773   Si       0.55629    0.54359    0.82497    1.000
    N3774    N        0.60900    0.59072    0.82373    1.000
    Si3775   Si       0.52460    0.56024    0.75292    1.000
    N3776    N        0.66320    0.56136    0.80258    1.000
    Si3777   Si       0.62569    0.54963    0.81907    1.000
    Si3778   Si       0.73503    0.56182    0.75850    1.000
    N3779    N        0.73802    0.55215    0.80093    1.000
    N3780    N        0.70378    0.59243    0.75578    1.000
    Si3781   Si       0.66375    0.59187    0.77281    1.000
    N3782    N        0.53404    0.57324    0.91979    1.000
    Si3783   Si       0.56550    0.56402    0.95147    1.000
    Si3784   Si       0.56195    0.57191    0.88652    1.000
    Si3785   Si       0.49186    0.58658    0.91852    1.000
    N3786    N        0.54367    0.54378    0.98189    1.000
    N3787    N        0.59553    0.59330    0.96340    1.000
    N3788    N        0.71306    0.57140    0.90660    1.000
    N3789    N        0.71862    0.54660    0.97403    1.000
    N3790    N        0.65421    0.54769    0.98928    1.000
    Si3791   Si       0.66606    0.54737    0.88160    1.000
    N3792    N        0.65551    0.58970    0.87572    1.000
    Si3793   Si       0.63546    0.56375    0.95223    1.000
    Si3794   Si       0.69904    0.53759    0.81645    1.000
    N3795    N        0.54187    0.61602    0.09009    1.000
    N3796    N        0.60770    0.62488    0.06277    1.000
    Si3797   Si       0.50539    0.60238    0.06815    1.000
    N3798    N        0.57986    0.64943    0.00506    1.000
    N3799    N        0.70454    0.64777    0.13757    1.000
    N3800    N        0.73641    0.61223    0.09403    1.000
    Si3801   Si       0.61807    0.64529    0.02583    1.000
    Si3802   Si       0.69077    0.62904    0.03201    1.000
    N3803    N        0.65410    0.63527    0.00609    1.000
    N3804    N        0.72184    0.64392    0.00618    1.000
    N3805    N        0.63747    0.65219    0.11596    1.000
    N3806    N        0.65042    0.61855    0.16822    1.000
    N3807    N        0.52779    0.63112    0.18958    1.000
    Si3808   Si       0.56369    0.62133    0.21552    1.000
    N3809    N        0.57487    0.64341    0.14715    1.000
    Si3810   Si       0.55435    0.60629    0.13310    1.000
    N3811    N        0.71504    0.62487    0.22029    1.000
    Si3812   Si       0.68651    0.60606    0.19404    1.000
    Si3813   Si       0.66976    0.62476    0.12625    1.000
    Si3814   Si       0.61631    0.64992    0.15411    1.000
    N3815    N        0.59070    0.65510    0.21749    1.000
    N3816    N        0.54725    0.62645    0.32776    1.000
    Si3817   Si       0.51972    0.63845    0.36190    1.000
    N3818    N        0.60218    0.64233    0.36019    1.000
    N3819    N        0.54485    0.61793    0.25654    1.000
    Si3820   Si       0.55438    0.64421    0.28939    1.000
    Si3821   Si       0.58006    0.60652    0.34926    1.000
    N3822    N        0.64265    0.61262    0.31030    1.000
    Si3823   Si       0.67585    0.62183    0.28285    1.000
    N3824    N        0.70326    0.64377    0.30911    1.000
    Si3825   Si       0.62094    0.65061    0.32248    1.000
    Si3826   Si       0.73158    0.64067    0.34156    1.000
    N3827    N        0.66130    0.65301    0.25582    1.000
    Si3828   Si       0.60621    0.64686    0.46964    1.000
    Si3829   Si       0.50681    0.64482    0.48552    1.000
    N3830    N        0.50156    0.60417    0.38353    1.000
    N3831    N        0.61511    0.60782    0.45378    1.000
    Si3832   Si       0.68382    0.60018    0.40342    1.000
    N3833    N        0.70773    0.63353    0.38958    1.000
    Si3834   Si       0.59434    0.62650    0.58272    1.000
    Si3835   Si       0.55346    0.63735    0.52415    1.000
    N3836    N        0.55518    0.63877    0.56720    1.000
    N3837    N        0.59125    0.65518    0.51019    1.000
    Si3838   Si       0.52971    0.65524    0.59783    1.000
    N3839    N        0.53136    0.60918    0.49983    1.000
    N3840    N        0.70700    0.62895    0.56902    1.000
    Si3841   Si       0.69568    0.62353    0.52405    1.000
    N3842    N        0.65496    0.61364    0.51306    1.000
    Si3843   Si       0.68303    0.60554    0.59711    1.000
    N3844    N        0.72603    0.60662    0.49923    1.000
    N3845    N        0.66525    0.63702    0.62346    1.000
    N3846    N        0.58750    0.62843    0.62445    1.000
    N3847    N        0.54249    0.59644    0.66850    1.000
    Si3848   Si       0.58088    0.61538    0.66405    1.000
    N3849    N        0.50377    0.64819    0.68981    1.000
    Si3850   Si       0.52319    0.61209    0.70495    1.000
    N3851    N        0.56039    0.61428    0.73004    1.000
    Si3852   Si       0.69268    0.63283    0.65697    1.000
    N3853    N        0.73533    0.62713    0.64739    1.000
    N3854    N        0.67885    0.61307    0.69467    1.000
    Si3855   Si       0.70869    0.62338    0.72436    1.000
    N3856    N        0.57809    0.63417    0.79067    1.000
    Si3857   Si       0.51114    0.61040    0.85363    1.000
    N3858    N        0.51266    0.62499    0.81392    1.000
    Si3859   Si       0.55872    0.64834    0.75504    1.000
    Si3860   Si       0.55265    0.60488    0.80955    1.000
    Si3861   Si       0.61741    0.63368    0.80893    1.000
    Si3862   Si       0.61947    0.60564    0.86393    1.000
    N3863    N        0.62420    0.64665    0.84956    1.000
    N3864    N        0.65474    0.63309    0.78614    1.000
    N3865    N        0.52574    0.64470    0.87708    1.000
    Si3866   Si       0.56359    0.64450    0.89685    1.000
    Si3867   Si       0.58505    0.63452    0.96430    1.000
    N3868    N        0.58565    0.60747    0.89099    1.000
    N3869    N        0.55243    0.64505    0.93981    1.000
    Si3870   Si       0.51253    0.65630    0.95133    1.000
    N3871    N        0.70695    0.63950    0.89711    1.000
    Si3872   Si       0.68467    0.60359    0.90618    1.000
    Si3873   Si       0.65476    0.63772    0.96340    1.000
    N3874    N        0.66156    0.60077    0.94349    1.000
    Si3875   Si       0.48911    0.64830    0.78647    1.000
    N3876    N        0.57572    0.68247    0.08689    1.000
    Si3877   Si       0.54615    0.67420    0.01546    1.000
    N3878    N        0.52228    0.66818    0.05120    1.000
    Si3879   Si       0.53874    0.66090    0.09073    1.000
    Si3880   Si       0.61304    0.66199    0.08321    1.000
    N3881    N        0.63186    0.68004    0.04797    1.000
    Si3882   Si       0.67392    0.69059    0.05083    1.000
    N3883    N        0.69014    0.70448    0.01395    1.000
    N3884    N        0.73110    0.69913    0.11730    1.000
    N3885    N        0.69621    0.65570    0.06600    1.000
    N3886    N        0.51515    0.66987    0.12500    1.000
    Si3887   Si       0.53724    0.66317    0.16231    1.000
    Si3888   Si       0.58939    0.69740    0.20344    1.000
    N3889    N        0.54957    0.70245    0.17682    1.000
    Si3890   Si       0.71104    0.68613    0.15857    1.000
    N3891    N        0.73527    0.68978    0.24436    1.000
    N3892    N        0.61895    0.68988    0.16914    1.000
    Si3893   Si       0.65430    0.71031    0.18397    1.000
    N3894    N        0.62831    0.70439    0.22885    1.000
    N3895    N        0.68667    0.68410    0.19514    1.000
    Si3896   Si       0.69873    0.66387    0.23140    1.000
    Si3897   Si       0.72751    0.65559    0.09910    1.000
    N3898    N        0.52674    0.67905    0.28426    1.000
    N3899    N        0.59662    0.65877    0.28705    1.000
    N3900    N        0.64792    0.68280    0.33380    1.000
    Si3901   Si       0.68797    0.68356    0.32023    1.000
    N3902    N        0.71655    0.68641    0.35302    1.000
    Si3903   Si       0.61976    0.66573    0.25001    1.000
    Si3904   Si       0.64177    0.70588    0.36961    1.000
    N3905    N        0.50223    0.67019    0.44892    1.000
    Si3906   Si       0.53801    0.68231    0.42773    1.000
    Si3907   Si       0.58601    0.66416    0.39511    1.000
    N3908    N        0.57593    0.66138    0.43997    1.000
    N3909    N        0.60863    0.70208    0.39819    1.000
    N3910    N        0.54287    0.66428    0.38883    1.000
    N3911    N        0.69507    0.71105    0.47612    1.000
    Si3912   Si       0.70891    0.67710    0.39647    1.000
    N3913    N        0.64007    0.67466    0.46411    1.000
    Si3914   Si       0.73485    0.69473    0.46614    1.000
    N3915    N        0.66937    0.69240    0.40292    1.000
    Si3916   Si       0.63902    0.70295    0.43249    1.000
    N3917    N        0.52700    0.67086    0.51467    1.000
    N3918    N        0.50791    0.68505    0.57589    1.000
    Si3919   Si       0.53222    0.70191    0.54557    1.000
    Si3920   Si       0.60505    0.68376    0.53985    1.000
    N3921    N        0.57229    0.70961    0.55610    1.000
    N3922    N        0.62171    0.65878    0.57177    1.000
    N3923    N        0.69162    0.66716    0.52234    1.000
    N3924    N        0.68660    0.69298    0.59445    1.000
    Si3925   Si       0.70782    0.67209    0.56265    1.000
    Si3926   Si       0.64759    0.67144    0.60542    1.000
    N3927    N        0.63813    0.70961    0.52686    1.000
    Si3928   Si       0.59722    0.69106    0.70358    1.000
    Si3929   Si       0.58542    0.66887    0.64013    1.000
    Si3930   Si       0.50405    0.67421    0.65357    1.000
    N3931    N        0.54400    0.67594    0.63369    1.000
    Si3932   Si       0.49960    0.68318    0.72059    1.000
    N3933    N        0.50684    0.70945    0.68353    1.000
    N3934    N        0.57857    0.68443    0.74159    1.000
    Si3935   Si       0.70667    0.69725    0.63299    1.000
    N3936    N        0.69435    0.67445    0.66742    1.000
    N3937    N        0.62047    0.69394    0.63314    1.000
    N3938    N        0.63699    0.70277    0.71085    1.000
    Si3939   Si       0.70655    0.69187    0.70513    1.000
    N3940    N        0.69605    0.66221    0.73599    1.000
    N3941    N        0.59163    0.65520    0.68045    1.000
    Si3942   Si       0.66431    0.68715    0.49719    1.000
    N3943    N        0.55454    0.70330    0.80719    1.000
    N3944    N        0.51643    0.66137    0.75445    1.000
    Si3945   Si       0.51328    0.70815    0.82157    1.000
    N3946    N        0.51459    0.71396    0.86475    1.000
    N3947    N        0.73710    0.70499    0.96480    1.000
    N3948    N        0.69365    0.68113    0.81759    1.000
    Si3949   Si       0.67878    0.66704    0.77717    1.000
    N3950    N        0.66800    0.71133    0.77191    1.000
    Si3951   Si       0.62077    0.68442    0.86844    1.000
    N3952    N        0.62660    0.71041    0.83276    1.000
    Si3953   Si       0.73620    0.68268    0.81919    1.000
    Si3954   Si       0.50155    0.67813    0.88578    1.000
    N3955    N        0.50350    0.68857    0.92686    1.000
    N3956    N        0.57913    0.68619    0.88399    1.000
    N3957    N        0.50938    0.66163    0.99452    1.000
    N3958    N        0.65358    0.69469    0.89717    1.000
    N3959    N        0.72855    0.69840    0.89143    1.000
    N3960    N        0.68188    0.67181    0.95170    1.000
    N3961    N        0.61861    0.65942    0.94949    1.000
    Si3962   Si       0.64065    0.69454    0.94064    1.000
    Si3963   Si       0.70990    0.67984    0.98486    1.000
    Si3964   Si       0.69270    0.67950    0.91057    1.000
    Si3965   Si       0.66598    0.71728    0.81413    1.000
    N3966    N        0.54898    0.74247    0.08549    1.000
    Si3967   Si       0.50923    0.74823    0.10007    1.000
    Si3968   Si       0.58311    0.76194    0.10620    1.000
    Si3969   Si       0.57525    0.71900    0.06254    1.000
    N3970    N        0.55962    0.71510    0.02006    1.000
    N3971    N        0.60892    0.74444    0.07457    1.000
    Si3972   Si       0.54439    0.74933    0.99880    1.000
    Si3973   Si       0.64755    0.75381    0.05876    1.000
    N3974    N        0.67807    0.72639    0.07666    1.000
    Si3975   Si       0.70362    0.73137    0.11083    1.000
    N3976    N        0.65936    0.76529    0.01957    1.000
    N3977    N        0.52227    0.75519    0.14078    1.000
    N3978    N        0.59225    0.75749    0.14837    1.000
    Si3979   Si       0.55547    0.74480    0.17239    1.000
    N3980    N        0.57883    0.73963    0.21511    1.000
    Si3981   Si       0.55310    0.76437    0.24223    1.000
    N3982    N        0.51463    0.74470    0.24084    1.000
    Si3983   Si       0.68252    0.76546    0.16295    1.000
    N3984    N        0.68404    0.72308    0.14941    1.000
    Si3985   Si       0.62284    0.75116    0.22872    1.000
    N3986    N        0.64892    0.75247    0.19248    1.000
    N3987    N        0.72800    0.75844    0.24848    1.000
    N3988    N        0.56097    0.74715    0.28350    1.000
    N3989    N        0.56995    0.73009    0.35245    1.000
    Si3990   Si       0.52511    0.72205    0.27715    1.000
    Si3991   Si       0.56532    0.76082    0.32238    1.000
    N3992    N        0.49437    0.72905    0.30851    1.000
    N3993    N        0.65043    0.74683    0.35919    1.000
    Si3994   Si       0.68686    0.75455    0.33585    1.000
    N3995    N        0.72611    0.75545    0.35612    1.000
    N3996    N        0.69382    0.72321    0.30346    1.000
    Si3997   Si       0.72738    0.72340    0.27277    1.000
    N3998    N        0.63910    0.76389    0.26660    1.000
    Si3999   Si       0.48827    0.76761    0.32553    1.000
    Si4000   Si       0.57883    0.73311    0.39487    1.000
    Si4001   Si       0.50986    0.74843    0.42017    1.000
    N4002    N        0.54695    0.72403    0.42119    1.000
    N4003    N        0.59855    0.76959    0.40173    1.000
    N4004    N        0.49082    0.74106    0.45883    1.000
    Si4005   Si       0.67854    0.75086    0.47160    1.000
    N4006    N        0.64204    0.74225    0.45016    1.000
    N4007    N        0.51220    0.73671    0.53040    1.000
    Si4008   Si       0.58347    0.74623    0.57480    1.000
    N4009    N        0.60521    0.75457    0.61015    1.000
    N4010    N        0.54581    0.76793    0.58302    1.000
    Si4011   Si       0.65800    0.73146    0.73396    1.000
    Si4012   Si       0.63962    0.75298    0.53667    1.000
    N4013    N        0.65921    0.76052    0.57614    1.000
    N4014    N        0.73378    0.74960    0.57947    1.000
    Si4015   Si       0.69347    0.73826    0.59134    1.000
    Si4016   Si       0.53885    0.73498    0.69871    1.000
    N4017    N        0.57735    0.72408    0.68075    1.000
    N4018    N        0.52363    0.72784    0.74157    1.000
    Si4019   Si       0.61007    0.73340    0.65014    1.000
    N4020    N        0.64495    0.76975    0.74682    1.000
    N4021    N        0.69234    0.73995    0.63535    1.000
    Si4022   Si       0.72426    0.76440    0.71489    1.000
    N4023    N        0.69334    0.73388    0.70789    1.000
    N4024    N        0.63795    0.76210    0.67084    1.000
    N4025    N        0.59017    0.74320    0.77790    1.000
    N4026    N        0.57572    0.75033    0.85526    1.000
    Si4027   Si       0.58995    0.72671    0.81990    1.000
    Si4028   Si       0.50116    0.76086    0.76325    1.000
    N4029    N        0.49920    0.74526    0.80563    1.000
    N4030    N        0.68024    0.74641    0.84082    1.000
    N4031    N        0.63129    0.76289    0.89360    1.000
    Si4032   Si       0.73459    0.74179    0.90031    1.000
    Si4033   Si       0.50699    0.72965    0.93496    1.000
    N4034    N        0.54440    0.74746    0.91785    1.000
    N4035    N        0.50833    0.73696    0.97879    1.000
    Si4036   Si       0.55472    0.72310    0.88290    1.000
    Si4037   Si       0.65509    0.76568    0.93098    1.000
    N4038    N        0.71702    0.76904    0.98141    1.000
    N4039    N        0.65403    0.73250    0.95818    1.000
    N4040    N        0.69275    0.75108    0.90828    1.000
    Si4041   Si       0.66296    0.73552    0.87959    1.000
    Si4042   Si       0.68146    0.74023    0.99166    1.000
    Si4043   Si       0.55833    0.71425    0.76536    1.000
    N4044    N        0.58724    0.80453    0.09663    1.000
    N4045    N        0.53521    0.78358    0.02716    1.000
    Si4046   Si       0.56640    0.80687    0.00749    1.000
    N4047    N        0.60745    0.80954    0.02223    1.000
    Si4048   Si       0.49665    0.79445    0.04413    1.000
    Si4049   Si       0.61630    0.81465    0.06490    1.000
    N4050    N        0.65165    0.79164    0.07944    1.000
    Si4051   Si       0.69440    0.79607    0.08625    1.000
    N4052    N        0.72121    0.79147    0.05257    1.000
    Si4053   Si       0.71611    0.80251    0.00876    1.000
    N4054    N        0.67850    0.82682    0.00808    1.000
    Si4055   Si       0.64357    0.80150    0.99981    1.000
    N4056    N        0.70817    0.77442    0.12111    1.000
    N4057    N        0.52587    0.82468    0.12853    1.000
    Si4058   Si       0.56881    0.82587    0.12895    1.000
    Si4059   Si       0.57597    0.81675    0.20670    1.000
    Si4060   Si       0.50940    0.79376    0.16261    1.000
    N4061    N        0.54596    0.78973    0.18858    1.000
    N4062    N        0.59484    0.82655    0.16606    1.000
    N4063    N        0.61309    0.79442    0.21674    1.000
    Si4064   Si       0.62928    0.82758    0.23925    1.000
    N4065    N        0.65759    0.80300    0.15913    1.000
    Si4066   Si       0.73115    0.80392    0.14723    1.000
    N4067    N        0.72098    0.77793    0.18175    1.000
    Si4068   Si       0.61943    0.78528    0.17310    1.000
    N4069    N        0.52992    0.78270    0.33813    1.000
    N4070    N        0.60198    0.78307    0.32687    1.000
    N4071    N        0.55808    0.80643    0.24955    1.000
    Si4072   Si       0.63513    0.79087    0.29957    1.000
    N4073    N        0.67739    0.79188    0.31754    1.000
    Si4074   Si       0.62100    0.77905    0.36612    1.000
    Si4075   Si       0.70124    0.82710    0.31317    1.000
    N4076    N        0.62964    0.83031    0.28201    1.000
    N4077    N        0.63589    0.81825    0.36872    1.000
    Si4078   Si       0.53291    0.81289    0.37186    1.000
    Si4079   Si       0.49341    0.82423    0.42202    1.000
    N4080    N        0.59105    0.78914    0.47123    1.000
    N4081    N        0.51787    0.79010    0.40718    1.000
    N4082    N        0.70946    0.77597    0.45509    1.000
    N4083    N        0.64891    0.80969    0.43763    1.000
    N4084    N        0.70493    0.80600    0.39647    1.000
    Si4085   Si       0.69132    0.81474    0.43949    1.000
    Si4086   Si       0.61952    0.77754    0.44080    1.000
    N4087    N        0.53888    0.80159    0.51715    1.000
    Si4088   Si       0.58379    0.80099    0.51205    1.000
    Si4089   Si       0.51405    0.77914    0.60896    1.000
    Si4090   Si       0.52053    0.77521    0.54658    1.000
    N4091    N        0.61831    0.82183    0.59127    1.000
    Si4092   Si       0.63541    0.78524    0.60483    1.000
    N4093    N        0.71844    0.81246    0.53577    1.000
    Si4094   Si       0.68167    0.81529    0.51331    1.000
    N4095    N        0.72437    0.82107    0.60158    1.000
    N4096    N        0.66527    0.77495    0.50762    1.000
    N4097    N        0.58351    0.78540    0.72025    1.000
    N4098    N        0.59256    0.81477    0.65431    1.000
    Si4099   Si       0.54346    0.80373    0.71738    1.000
    N4100    N        0.52100    0.81295    0.63599    1.000
    Si4101   Si       0.49416    0.79629    0.66500    1.000
    N4102    N        0.52087    0.77581    0.69242    1.000
    Si4103   Si       0.61220    0.79500    0.68718    1.000
    N4104    N        0.64435    0.82230    0.70572    1.000
    Si4105   Si       0.66537    0.80666    0.74050    1.000
    N4106    N        0.70944    0.80480    0.73385    1.000
    N4107    N        0.66611    0.80366    0.63102    1.000
    N4108    N        0.71408    0.79189    0.67566    1.000
    N4109    N        0.60106    0.76942    0.53991    1.000
    Si4110   Si       0.67946    0.77323    0.65997    1.000
    N4111    N        0.58813    0.81297    0.78155    1.000
    N4112    N        0.52517    0.79733    0.75589    1.000
    Si4113   Si       0.54742    0.82554    0.78080    1.000
    Si4114   Si       0.60283    0.77944    0.75775    1.000
    N4115    N        0.49394    0.79335    0.86201    1.000
    N4116    N        0.61772    0.81121    0.84497    1.000
    N4117    N        0.68845    0.81491    0.86022    1.000
    N4118    N        0.71257    0.80004    0.80363    1.000
    Si4119   Si       0.70839    0.78037    0.84152    1.000
    N4120    N        0.65343    0.82532    0.77714    1.000
    Si4121   Si       0.73566    0.79494    0.76795    1.000
    Si4122   Si       0.59816    0.78212    0.87299    1.000
    N4123    N        0.51491    0.81054    0.93034    1.000
    N4124    N        0.57814    0.80879    0.90205    1.000
    Si4125   Si       0.55336    0.78663    0.93263    1.000
    N4126    N        0.56680    0.77741    0.97384    1.000
    N4127    N        0.64999    0.80091    0.95512    1.000
    Si4128   Si       0.65029    0.83304    0.86071    1.000
    Si4129   Si       0.50646    0.85087    0.09737    1.000
    Si4130   Si       0.51146    0.85696    0.01602    1.000
    N4131    N        0.50485    0.83809    0.05481    1.000
    Si4132   Si       0.67329    0.84219    0.17348    1.000
    Si4133   Si       0.61824    0.89054    0.04409    1.000
    N4134    N        0.54733    0.84256    0.99324    1.000
    Si4135   Si       0.66128    0.86187    0.09896    1.000
    N4136    N        0.63124    0.85511    0.06885    1.000
    N4137    N        0.69903    0.83855    0.09462    1.000
    Si4138   Si       0.73649    0.85798    0.08325    1.000
    Si4139   Si       0.68238    0.86878    0.00254    1.000
    N4140    N        0.58082    0.86807    0.12256    1.000
    N4141    N        0.53500    0.86560    0.22255    1.000
    N4142    N        0.59348    0.85190    0.22878    1.000
    Si4143   Si       0.60981    0.86466    0.15414    1.000
    Si4144   Si       0.49538    0.85138    0.21240    1.000
    Si4145   Si       0.57469    0.88561    0.21172    1.000
    N4146    N        0.65266    0.86895    0.14231    1.000
    N4147    N        0.66098    0.84997    0.21354    1.000
    Si4148   Si       0.73331    0.87938    0.15737    1.000
    N4149    N        0.72809    0.88598    0.05259    1.000
    N4150    N        0.71450    0.84239    0.16234    1.000
    Si4151   Si       0.55133    0.86133    0.32063    1.000
    N4152    N        0.57468    0.87800    0.28596    1.000
    Si4153   Si       0.55615    0.84758    0.25776    1.000
    N4154    N        0.52332    0.84623    0.29280    1.000
    Si4155   Si       0.60578    0.84888    0.36556    1.000
    N4156    N        0.56526    0.83635    0.35524    1.000
    N4157    N        0.61741    0.87866    0.33667    1.000
    Si4158   Si       0.61747    0.87064    0.29277    1.000
    N4159    N        0.69287    0.85420    0.34375    1.000
    N4160    N        0.69607    0.84541    0.27278    1.000
    N4161    N        0.50428    0.83901    0.46044    1.000
    N4162    N        0.50777    0.84633    0.38409    1.000
    Si4163   Si       0.52247    0.87867    0.46814    1.000
    N4164    N        0.60644    0.86751    0.40409    1.000
    N4165    N        0.56551    0.87956    0.46507    1.000
    Si4166   Si       0.51971    0.88674    0.37810    1.000
    Si4167   Si       0.60032    0.87490    0.49417    1.000
    Si4168   Si       0.67465    0.83193    0.37646    1.000
    N4169    N        0.63128    0.87833    0.46400    1.000
    N4170    N        0.67698    0.85950    0.40973    1.000
    N4171    N        0.69615    0.83770    0.47718    1.000
    Si4172   Si       0.63807    0.85193    0.43057    1.000
    Si4173   Si       0.72850    0.86781    0.47721    1.000
    N4174    N        0.74195    0.87259    0.43532    1.000
    Si4175   Si       0.67729    0.87525    0.24541    1.000
    N4176    N        0.52290    0.87258    0.51217    1.000
    N4177    N        0.59835    0.84176    0.52106    1.000
    N4178    N        0.50879    0.85042    0.57549    1.000
    Si4179   Si       0.52460    0.88151    0.55480    1.000
    Si4180   Si       0.50696    0.82976    0.50336    1.000
    Si4181   Si       0.65704    0.85735    0.68523    1.000
    N4182    N        0.73076    0.88257    0.55577    1.000
    Si4183   Si       0.62441    0.84981    0.55618    1.000
    N4184    N        0.68808    0.87003    0.60346    1.000
    Si4185   Si       0.70538    0.84726    0.56821    1.000
    N4186    N        0.66646    0.84320    0.54348    1.000
    N4187    N        0.57027    0.86359    0.62006    1.000
    Si4188   Si       0.55280    0.83624    0.65364    1.000
    Si4189   Si       0.55406    0.87755    0.72251    1.000
    N4190    N        0.54491    0.84275    0.69644    1.000
    Si4191   Si       0.60863    0.84311    0.62728    1.000
    N4192    N        0.63092    0.87094    0.65376    1.000
    N4193    N        0.72798    0.86759    0.72833    1.000
    Si4194   Si       0.69533    0.83811    0.62941    1.000
    N4195    N        0.69662    0.85194    0.66963    1.000
    N4196    N        0.59477    0.88804    0.73329    1.000
    Si4197   Si       0.72563    0.83393    0.69989    1.000
    N4198    N        0.59393    0.87016    0.80625    1.000
    N4199    N        0.53832    0.86379    0.76102    1.000
    Si4200   Si       0.52341    0.87782    0.80039    1.000
    Si4201   Si       0.58211    0.88723    0.84379    1.000
    N4202    N        0.52429    0.83639    0.81572    1.000
    N4203    N        0.71605    0.86465    0.79562    1.000
    N4204    N        0.65551    0.86056    0.82761    1.000
    N4205    N        0.71870    0.87643    0.86115    1.000
    N4206    N        0.64101    0.84531    0.90037    1.000
    Si4207   Si       0.61864    0.83417    0.80469    1.000
    Si4208   Si       0.68620    0.83575    0.80626    1.000
    Si4209   Si       0.59882    0.84708    0.90923    1.000
    N4210    N        0.53352    0.87753    0.93990    1.000
    N4211    N        0.57887    0.87726    0.88519    1.000
    N4212    N        0.59715    0.87049    0.94775    1.000
    Si4213   Si       0.56301    0.88099    0.97474    1.000
    Si4214   Si       0.50114    0.84853    0.94431    1.000
    Si4215   Si       0.62625    0.88998    0.97741    1.000
    Si4216   Si       0.66429    0.83759    0.93626    1.000
    Si4217   Si       0.73413    0.86432    0.94956    1.000
    N4218    N        0.66673    0.87442    0.96057    1.000
    N4219    N        0.70630    0.83573    0.92710    1.000
    Si4220   Si       0.71727    0.83878    0.88517    1.000
    N4221    N        0.72417    0.87467    0.99067    1.000
    Si4222   Si       0.55996    0.91489    0.02867    1.000
    Si4223   Si       0.56051    0.90170    0.10140    1.000
    N4224    N        0.58256    0.90838    0.06532    1.000
    N4225    N        0.52150    0.89839    0.01658    1.000
    N4226    N        0.59181    0.89114    0.00772    1.000
    N4227    N        0.67357    0.90472    0.09507    1.000
    Si4228   Si       0.70299    0.91928    0.06621    1.000
    Si4229   Si       0.66051    0.93945    0.00655    1.000
    N4230    N        0.65347    0.89726    0.01905    1.000
    N4231    N        0.73104    0.94307    0.09138    1.000
    Si4232   Si       0.48893    0.92439    0.00455    1.000
    N4233    N        0.56637    0.93714    0.12711    1.000
    N4234    N        0.59911    0.89832    0.17874    1.000
    Si4235   Si       0.51656    0.90992    0.22513    1.000
    Si4236   Si       0.59790    0.93648    0.15753    1.000
    N4237    N        0.56213    0.92076    0.23173    1.000
    Si4238   Si       0.70218    0.93451    0.20110    1.000
    Si4239   Si       0.66838    0.91110    0.13685    1.000
    N4240    N        0.70379    0.90913    0.16471    1.000
    N4241    N        0.70454    0.90678    0.23505    1.000
    N4242    N        0.63977    0.94143    0.14607    1.000
    N4243    N        0.51631    0.89488    0.09841    1.000
    N4244    N        0.51275    0.91264    0.27059    1.000
    Si4245   Si       0.55683    0.91623    0.27628    1.000
    Si4246   Si       0.55714    0.93626    0.34490    1.000
    N4247    N        0.53911    0.89709    0.34156    1.000
    N4248    N        0.59107    0.93944    0.37102    1.000
    Si4249   Si       0.62456    0.91938    0.35140    1.000
    N4250    N        0.69778    0.91310    0.30391    1.000
    Si4251   Si       0.66112    0.93030    0.28601    1.000
    Si4252   Si       0.72810    0.91082    0.27041    1.000
    Si4253   Si       0.69579    0.89777    0.34561    1.000
    N4254    N        0.63419    0.94429    0.31864    1.000
    N4255    N        0.66551    0.91724    0.36546    1.000
    N4256    N        0.64387    0.89460    0.26881    1.000
    Si4257   Si       0.50326    0.92994    0.41817    1.000
    N4258    N        0.54096    0.90894    0.40915    1.000
    N4259    N        0.60309    0.93113    0.43622    1.000
    Si4260   Si       0.57910    0.89628    0.42645    1.000
    N4261    N        0.49418    0.90814    0.45504    1.000
    Si4262   Si       0.70823    0.88952    0.41198    1.000
    N4263    N        0.72664    0.90549    0.37518    1.000
    N4264    N        0.69470    0.92806    0.42764    1.000
    Si4265   Si       0.69961    0.94017    0.46917    1.000
    N4266    N        0.71154    0.90396    0.49229    1.000
    Si4267   Si       0.63159    0.92287    0.46836    1.000
    N4268    N        0.54166    0.91169    0.57705    1.000
    Si4269   Si       0.57777    0.89793    0.59669    1.000
    N4270    N        0.61104    0.91587    0.50800    1.000
    Si4271   Si       0.62747    0.92521    0.54836    1.000
    N4272    N        0.67095    0.92113    0.56118    1.000
    Si4273   Si       0.68473    0.91235    0.60256    1.000
    Si4274   Si       0.70679    0.91309    0.53615    1.000
    N4275    N        0.71850    0.94080    0.60611    1.000
    N4276    N        0.59583    0.92444    0.62443    1.000
    N4277    N        0.53681    0.91400    0.70937    1.000
    Si4278   Si       0.56551    0.94360    0.69503    1.000
    Si4279   Si       0.49404    0.91786    0.71170    1.000
    N4280    N        0.60946    0.93153    0.68823    1.000
    N4281    N        0.74084    0.94152    0.53661    1.000
    Si4282   Si       0.62840    0.91520    0.72587    1.000
    N4283    N        0.66265    0.93203    0.63599    1.000
    N4284    N        0.71557    0.93522    0.70202    1.000
    Si4285   Si       0.62895    0.91353    0.65093    1.000
    Si4286   Si       0.70158    0.90085    0.72826    1.000
    N4287    N        0.61170    0.88986    0.57062    1.000
    N4288    N        0.66207    0.88976    0.71597    1.000
    N4289    N        0.56258    0.93022    0.77955    1.000
    Si4290   Si       0.52620    0.92978    0.85899    1.000
    Si4291   Si       0.59220    0.90125    0.77576    1.000
    N4292    N        0.54034    0.89774    0.83319    1.000
    N4293    N        0.60971    0.92179    0.83985    1.000
    N4294    N        0.63495    0.92011    0.77622    1.000
    N4295    N        0.70352    0.92590    0.76467    1.000
    N4296    N        0.68100    0.92413    0.83366    1.000
    Si4297   Si       0.64454    0.90355    0.81752    1.000
    Si4298   Si       0.71614    0.89988    0.82420    1.000
    N4299    N        0.48999    0.93435    0.96191    1.000
    N4300    N        0.53333    0.93156    0.90341    1.000
    N4301    N        0.56530    0.92597    0.95764    1.000
    Si4302   Si       0.50382    0.90940    0.92917    1.000
    Si4303   Si       0.56426    0.90162    0.91780    1.000
    Si4304   Si       0.68676    0.94525    0.87289    1.000
    N4305    N        0.73013    0.95168    0.87864    1.000
    Si4306   Si       0.68452    0.91083    0.94228    1.000
    N4307    N        0.62804    0.93003    0.96349    1.000
    N4308    N        0.72618    0.90140    0.92765    1.000
    N4309    N        0.69232    0.93981    0.97578    1.000
    N4310    N        0.66668    0.92862    0.90630    1.000
    Si4311   Si       0.59353    0.95033    0.98411    1.000
    N4312    N        0.53307    0.97809    0.07595    1.000
    Si4313   Si       0.55220    0.99105    0.03838    1.000
    N4314    N        0.56350    0.95544    0.01669    1.000
    Si4315   Si       0.49361    0.98579    0.05931    1.000
    Si4316   Si       0.53810    0.96725    0.11864    1.000
    N4317    N        0.69516    0.98050    0.14086    1.000
    N4318    N        0.62812    0.96625    0.01386    1.000
    Si4319   Si       0.69732    0.99297    0.04144    1.000
    Si4320   Si       0.72266    0.98144    0.10790    1.000
    N4321    N        0.71641    0.99763    0.00084    1.000
    N4322    N        0.68815    0.95200    0.04098    1.000
    N4323    N        0.58469    0.97060    0.18351    1.000
    Si4324   Si       0.55679    0.96160    0.21687    1.000
    N4325    N        0.54857    0.00332    0.13834    1.000
    N4326    N        0.49633    0.95778    0.12912    1.000
    N4327    N        0.51193    0.95363    0.21543    1.000
    N4328    N        0.57118    0.99132    0.24504    1.000
    N4329    N        0.73854    0.95999    0.19872    1.000
    Si4330   Si       0.73038    0.98899    0.16803    1.000
    N4331    N        0.67003    0.96644    0.20040    1.000
    Si4332   Si       0.66567    0.99361    0.23539    1.000
    Si4333   Si       0.65604    0.97960    0.16038    1.000
    Si4334   Si       0.62444    0.00750    0.02760    1.000
    Si4335   Si       0.56651    0.99060    0.28933    1.000
    N4336    N        0.52685    0.96443    0.35907    1.000
    N4337    N        0.60480    0.00769    0.30488    1.000
    N4338    N        0.56465    0.94921    0.30283    1.000
    N4339    N        0.72837    0.00203    0.30203    1.000
    N4340    N        0.66543    0.97175    0.27233    1.000
    Si4341   Si       0.64333    0.98471    0.30876    1.000
    N4342    N        0.71348    0.97379    0.38325    1.000
    N4343    N        0.53751    0.00326    0.47568    1.000
    Si4344   Si       0.49743    0.99433    0.45785    1.000
    Si4345   Si       0.53577    0.98997    0.39337    1.000
    Si4346   Si       0.60201    0.96160    0.40579    1.000
    N4347    N        0.57385    0.99470    0.41640    1.000
    N4348    N        0.50813    0.97331    0.42138    1.000
    N4349    N        0.60702    0.99724    0.47680    1.000
    N4350    N        0.73308    0.96925    0.47314    1.000
    N4351    N        0.66051    0.95344    0.48235    1.000
    N4352    N        0.64331    0.97573    0.39879    1.000
    Si4353   Si       0.67775    0.94912    0.39239    1.000
    N4354    N        0.57091    0.97462    0.58943    1.000
    N4355    N        0.51573    0.96456    0.53854    1.000
    Si4356   Si       0.59417    0.99721    0.55996    1.000
    N4357    N        0.50114    0.95846    0.60769    1.000
    Si4358   Si       0.52767    0.00189    0.51901    1.000
    Si4359   Si       0.53304    0.95469    0.57744    1.000
    N4360    N        0.62224    0.96815    0.54239    1.000
    Si4361   Si       0.71182    0.97857    0.58357    1.000
    N4362    N        0.67213    0.98956    0.59737    1.000
    N4363    N        0.70539    0.99409    0.54469    1.000
    Si4364   Si       0.63812    0.98395    0.50366    1.000
    Si4365   Si       0.73496    0.97957    0.51551    1.000
    Si4366   Si       0.58533    0.96583    0.62981    1.000
    N4367    N        0.58136    0.97882    0.71952    1.000
    Si4368   Si       0.50948    0.96646    0.64879    1.000
    N4369    N        0.55129    0.96329    0.65740    1.000
    N4370    N        0.51515    0.00203    0.72907    1.000
    N4371    N        0.49779    0.00630    0.65985    1.000
    Si4372   Si       0.55699    0.00779    0.73971    1.000
    Si4373   Si       0.62047    0.97714    0.69977    1.000
    N4374    N        0.65216    0.95549    0.72582    1.000
    N4375    N        0.62111    0.98470    0.65027    1.000
    N4376    N        0.68523    0.99309    0.67074    1.000
    Si4377   Si       0.69025    0.97042    0.70666    1.000
    N4378    N        0.70661    0.99048    0.74403    1.000
    Si4379   Si       0.66166    0.97638    0.63662    1.000
    N4380    N        0.55155    0.96398    0.84722    1.000
    N4381    N        0.50464    0.96689    0.79658    1.000
    Si4382   Si       0.54775    0.96325    0.80293    1.000
    Si4383   Si       0.59489    0.95890    0.85816    1.000
    N4384    N        0.56260    0.99868    0.78399    1.000
    Si4385   Si       0.53582    0.99895    0.86867    1.000
    N4386    N        0.61181    0.99393    0.83829    1.000
    N4387    N        0.49280    0.00109    0.86100    1.000
    Si4388   Si       0.49223    0.98009    0.75760    1.000
    N4389    N        0.66475    0.98610    0.79160    1.000
    Si4390   Si       0.73260    0.96071    0.76468    1.000
    Si4391   Si       0.65396    0.00495    0.83151    1.000
    N4392    N        0.67518    0.98658    0.86534    1.000
    N4393    N        0.58756    0.98384    0.95694    1.000
    N4394    N        0.54103    0.99940    0.91031    1.000
    Si4395   Si       0.56076    0.96371    0.92753    1.000
    Si4396   Si       0.72976    0.95951    0.98212    1.000
    N4397    N        0.59441    0.95095    0.89961    1.000
    N4398    N        0.64546    0.99070    0.92850    1.000
    Si4399   Si       0.66582    0.95026    0.76826    1.000
    Si4400   Si       0.63130    0.94945    0.92365    1.000
    N4401    N        0.80581    0.03906    0.08347    1.000
    Si4402   Si       0.76370    0.02913    0.06984    1.000
    N4403    N        0.82148    0.03986    0.00968    1.000
    Si4404   Si       0.82640    0.02046    0.04998    1.000
    N4405    N        0.74966    0.05636    0.10544    1.000
    N4406    N        0.75582    0.05462    0.03655    1.000
    Si4407   Si       0.82164    0.06439    0.11343    1.000
    Si4408   Si       0.98374    0.06515    0.00448    1.000
    Si4409   Si       0.78258    0.05259    0.00061    1.000
    N4410    N        0.86673    0.04178    0.05469    1.000
    N4411    N        0.93001    0.04009    0.08233    1.000
    N4412    N        0.97101    0.02506    0.01937    1.000
    Si4413   Si       0.92989    0.02087    0.00340    1.000
    Si4414   Si       0.89654    0.01489    0.07016    1.000
    N4415    N        0.90756    0.05843    0.00357    1.000
    Si4416   Si       0.77314    0.02643    0.20261    1.000
    N4417    N        0.79295    0.06292    0.21658    1.000
    N4418    N        0.85834    0.04651    0.13205    1.000
    Si4419   Si       0.93441    0.04033    0.19082    1.000
    Si4420   Si       0.95017    0.04486    0.12185    1.000
    N4421    N        0.96527    0.06208    0.21096    1.000
    N4422    N        0.90302    0.03476    0.22512    1.000
    N4423    N        0.92052    0.05574    0.15237    1.000
    N4424    N        0.81159    0.04608    0.28739    1.000
    Si4425   Si       0.82554    0.05609    0.32695    1.000
    N4426    N        0.85628    0.02762    0.33850    1.000
    N4427    N        0.79975    0.06267    0.36233    1.000
    N4428    N        0.74624    0.06422    0.27545    1.000
    Si4429   Si       0.89484    0.03352    0.31745    1.000
    N4430    N        0.92759    0.03042    0.34937    1.000
    Si4431   Si       0.92588    0.03107    0.26241    1.000
    N4432    N        0.96740    0.01955    0.26211    1.000
    N4433    N        0.91555    0.06245    0.29164    1.000
    Si4434   Si       0.96789    0.01150    0.35156    1.000
    N4435    N        0.75272    0.01453    0.42357    1.000
    N4436    N        0.77404    0.04659    0.48228    1.000
    Si4437   Si       0.83064    0.05366    0.39441    1.000
    Si4438   Si       0.77308    0.05022    0.43722    1.000
    N4439    N        0.82934    0.01057    0.39949    1.000
    N4440    N        0.81292    0.06764    0.43164    1.000
    Si4441   Si       0.90538    0.02667    0.38584    1.000
    Si4442   Si       0.95693    0.05820    0.49080    1.000
    N4443    N        0.98485    0.04231    0.37755    1.000
    N4444    N        0.93607    0.02059    0.41724    1.000
    Si4445   Si       0.97960    0.03221    0.42026    1.000
    N4446    N        0.91371    0.05097    0.49137    1.000
    N4447    N        0.87578    0.05774    0.39658    1.000
    Si4448   Si       0.87219    0.03770    0.48668    1.000
    N4449    N        0.97443    0.06521    0.44974    1.000
    Si4450   Si       0.79992    0.01522    0.49645    1.000
    Si4451   Si       0.82159    0.04064    0.60586    1.000
    N4452    N        0.83858    0.02185    0.51086    1.000
    N4453    N        0.85079    0.02251    0.58109    1.000
    N4454    N        0.78162    0.05689    0.59346    1.000
    Si4455   Si       0.75577    0.02913    0.55725    1.000
    Si4456   Si       0.92564    0.01198    0.65064    1.000
    N4457    N        0.89398    0.03312    0.67235    1.000
    Si4458   Si       0.89591    0.02270    0.57716    1.000
    N4459    N        0.91022    0.06102    0.56409    1.000
    N4460    N        0.98624    0.04666    0.52232    1.000
    Si4461   Si       0.76122    0.03143    0.62447    1.000
    N4462    N        0.85469    0.03818    0.73396    1.000
    N4463    N        0.80082    0.01480    0.63364    1.000
    Si4464   Si       0.89124    0.02331    0.71529    1.000
    Si4465   Si       0.95768    0.06765    0.73530    1.000
    N4466    N        0.92041    0.04507    0.73977    1.000
    N4467    N        0.95838    0.03981    0.65545    1.000
    N4468    N        0.83625    0.04802    0.81223    1.000
    Si4469   Si       0.76029    0.04225    0.78524    1.000
    Si4470   Si       0.85218    0.02564    0.77489    1.000
    N4471    N        0.76836    0.03211    0.82660    1.000
    N4472    N        0.78123    0.02477    0.75426    1.000
    Si4473   Si       0.85815    0.02373    0.84252    1.000
    Si4474   Si       0.75866    0.05661    0.86317    1.000
    N4475    N        0.99152    0.04872    0.91997    1.000
    N4476    N        0.89150    0.01845    0.79516    1.000
    N4477    N        0.96073    0.05193    0.85379    1.000
    N4478    N        0.89749    0.03033    0.86132    1.000
    Si4479   Si       0.92464    0.04510    0.78414    1.000
    N4480    N        0.96880    0.05702    0.77975    1.000
    N4481    N        0.82730    0.02587    0.87499    1.000
    N4482    N        0.76278    0.03024    0.96931    1.000
    Si4483   Si       0.78350    0.02363    0.93043    1.000
    N4484    N        0.76638    0.02344    0.89114    1.000
    N4485    N        0.86294    0.04886    0.95641    1.000
    N4486    N        0.79979    0.06564    0.92605    1.000
    N4487    N        0.92117    0.05565    0.91640    1.000
    Si4488   Si       0.91319    0.01519    0.90108    1.000
    Si4489   Si       0.98324    0.02705    0.88196    1.000
    Si4490   Si       0.86312    0.05809    0.99884    1.000
    N4491    N        0.83971    0.09677    0.08860    1.000
    N4492    N        0.86025    0.09679    0.02080    1.000
    Si4493   Si       0.87125    0.08341    0.06137    1.000
    N4494    N        0.90944    0.10230    0.06801    1.000
    N4495    N        0.97189    0.09020    0.03619    1.000
    N4496    N        0.97320    0.08139    0.10871    1.000
    Si4497   Si       0.94791    0.08153    0.07337    1.000
    N4498    N        0.73903    0.12385    0.03230    1.000
    Si4499   Si       0.76196    0.08971    0.12899    1.000
    Si4500   Si       0.81674    0.08364    0.18711    1.000
    N4501    N        0.80031    0.07877    0.14671    1.000
    N4502    N        0.85848    0.06921    0.19174    1.000
    Si4503   Si       0.88349    0.07623    0.22526    1.000
    Si4504   Si       0.88246    0.07529    0.15507    1.000
    Si4505   Si       0.95696    0.10336    0.22515    1.000
    N4506    N        0.88341    0.11896    0.15439    1.000
    N4507    N        0.91540    0.10384    0.21186    1.000
    N4508    N        0.77086    0.12424    0.10420    1.000
    N4509    N        0.79124    0.11291    0.26377    1.000
    N4510    N        0.83811    0.09748    0.32090    1.000
    Si4511   Si       0.82986    0.11082    0.28048    1.000
    Si4512   Si       0.75695    0.07353    0.36985    1.000
    Si4513   Si       0.78470    0.06964    0.25909    1.000
    N4514    N        0.86408    0.09788    0.25695    1.000
    N4515    N        0.74218    0.10719    0.34300    1.000
    Si4516   Si       0.92898    0.10128    0.29874    1.000
    N4517    N        0.95688    0.10512    0.33411    1.000
    N4518    N        0.95769    0.11514    0.26645    1.000
    Si4519   Si       0.97942    0.08481    0.36711    1.000
    N4520    N        0.89208    0.11670    0.36879    1.000
    N4521    N        0.74934    0.07775    0.41139    1.000
    Si4522   Si       0.83232    0.10138    0.45298    1.000
    N4523    N        0.85134    0.11928    0.41852    1.000
    N4524    N        0.86192    0.08083    0.47900    1.000
    N4525    N        0.74466    0.10736    0.47111    1.000
    N4526    N        0.95198    0.10340    0.39541    1.000
    Si4527   Si       0.90457    0.09728    0.48696    1.000
    Si4528   Si       0.88798    0.09715    0.40792    1.000
    Si4529   Si       0.95510    0.10564    0.43958    1.000
    N4530    N        0.91053    0.10487    0.44481    1.000
    N4531    N        0.95041    0.10114    0.49407    1.000
    Si4532   Si       0.77690    0.09960    0.58299    1.000
    N4533    N        0.79520    0.10433    0.54482    1.000
    Si4534   Si       0.84453    0.11636    0.61069    1.000
    N4535    N        0.96440    0.11150    0.65732    1.000
    Si4536   Si       0.98310    0.11428    0.57983    1.000
    Si4537   Si       0.90822    0.09895    0.58247    1.000
    N4538    N        0.97879    0.07476    0.59548    1.000
    N4539    N        0.87142    0.12279    0.57850    1.000
    N4540    N        0.94227    0.12666    0.56681    1.000
    N4541    N        0.79996    0.06033    0.68863    1.000
    N4542    N        0.84446    0.07463    0.62372    1.000
    Si4543   Si       0.75997    0.07364    0.68148    1.000
    N4544    N        0.74997    0.08490    0.72158    1.000
    N4545    N        0.75342    0.11213    0.65797    1.000
    Si4546   Si       0.83286    0.07023    0.71312    1.000
    N4547    N        0.82009    0.10070    0.74331    1.000
    N4548    N        0.86239    0.09030    0.68746    1.000
    N4549    N        0.99130    0.07227    0.70773    1.000
    Si4550   Si       0.95357    0.07690    0.63144    1.000
    N4551    N        0.94141    0.10783    0.72771    1.000
    Si4552   Si       0.87984    0.06957    0.65322    1.000
    Si4553   Si       0.97431    0.11341    0.69896    1.000
    N4554    N        0.91119    0.08494    0.62564    1.000
    N4555    N        0.77398    0.08309    0.78785    1.000
    Si4556   Si       0.80815    0.08111    0.81553    1.000
    N4557    N        0.79681    0.08052    0.85886    1.000
    N4558    N        0.82617    0.11980    0.80865    1.000
    Si4559   Si       0.77757    0.10486    0.74973    1.000
    N4560    N        0.91819    0.07931    0.81370    1.000
    Si4561   Si       0.97306    0.07513    0.82210    1.000
    N4562    N        0.97566    0.11769    0.83543    1.000
    Si4563   Si       0.90116    0.12270    0.81230    1.000
    N4564    N        0.88344    0.12200    0.77324    1.000
    N4565    N        0.91636    0.10864    0.87258    1.000
    Si4566   Si       0.92038    0.06707    0.85733    1.000
    N4567    N        0.78056    0.09448    0.98576    1.000
    Si4568   Si       0.77264    0.09759    0.94287    1.000
    N4569    N        0.85956    0.09115    0.89721    1.000
    Si4570   Si       0.82313    0.06775    0.88952    1.000
    Si4571   Si       0.88463    0.07677    0.92998    1.000
    N4572    N        0.95963    0.07888    0.97085    1.000
    N4573    N        0.89681    0.10840    0.95465    1.000
    Si4574   Si       0.92359    0.09680    0.98662    1.000
    Si4575   Si       0.95809    0.07557    0.92806    1.000
    N4576    N        0.96873    0.11414    0.90840    1.000
    Si4577   Si       0.84752    0.13944    0.02273    1.000
    N4578    N        0.80915    0.13676    0.04255    1.000
    N4579    N        0.83465    0.16215    0.10954    1.000
    Si4580   Si       0.74454    0.15839    0.11348    1.000
    Si4581   Si       0.81147    0.13088    0.08759    1.000
    Si4582   Si       0.77812    0.12903    0.01279    1.000
    N4583    N        0.88306    0.15717    0.22560    1.000
    Si4584   Si       0.90988    0.14494    0.07008    1.000
    N4585    N        0.88029    0.16386    0.04180    1.000
    N4586    N        0.95411    0.15068    0.06290    1.000
    N4587    N        0.90564    0.16152    0.10854    1.000
    Si4588   Si       0.97499    0.13180    0.02550    1.000
    N4589    N        0.82116    0.12430    0.19715    1.000
    Si4590   Si       0.84176    0.16049    0.20544    1.000
    N4591    N        0.74678    0.14803    0.21248    1.000
    Si4592   Si       0.75720    0.18158    0.18490    1.000
    N4593    N        0.86388    0.18036    0.17040    1.000
    N4594    N        0.93226    0.16709    0.17288    1.000
    N4595    N        0.98363    0.14543    0.13444    1.000
    Si4596   Si       0.90280    0.13852    0.18911    1.000
    Si4597   Si       0.87151    0.15651    0.13316    1.000
    Si4598   Si       0.94418    0.16157    0.13176    1.000
    N4599    N        0.83748    0.15161    0.28511    1.000
    N4600    N        0.84189    0.15893    0.35639    1.000
    Si4601   Si       0.75812    0.14169    0.25506    1.000
    N4602    N        0.77298    0.17910    0.27837    1.000
    Si4603   Si       0.87930    0.14938    0.27134    1.000
    N4604    N        0.96551    0.17662    0.30360    1.000
    N4605    N        0.93784    0.17018    0.36170    1.000
    N4606    N        0.89797    0.13069    0.30558    1.000
    Si4607   Si       0.98538    0.14444    0.28046    1.000
    Si4608   Si       0.86488    0.12763    0.33718    1.000
    Si4609   Si       0.93373    0.12736    0.36412    1.000
    Si4610   Si       0.74423    0.14786    0.48674    1.000
    N4611    N        0.81115    0.13305    0.47500    1.000
    Si4612   Si       0.80202    0.17477    0.46042    1.000
    Si4613   Si       0.84924    0.15819    0.39891    1.000
    N4614    N        0.75912    0.17417    0.45562    1.000
    Si4615   Si       0.96692    0.17369    0.46616    1.000
    N4616    N        0.92632    0.18196    0.45477    1.000
    N4617    N        0.98318    0.14003    0.44523    1.000
    N4618    N        0.82011    0.17854    0.42234    1.000
    N4619    N        0.77071    0.16208    0.51816    1.000
    N4620    N        0.83518    0.16469    0.53237    1.000
    Si4621   Si       0.80513    0.13548    0.51777    1.000
    N4622    N        0.74631    0.18130    0.57613    1.000
    Si4623   Si       0.87274    0.14892    0.54358    1.000
    Si4624   Si       0.93442    0.16878    0.57639    1.000
    N4625    N        0.95746    0.17112    0.50912    1.000
    N4626    N        0.89594    0.13639    0.50732    1.000
    N4627    N        0.90221    0.18330    0.55069    1.000
    N4628    N        0.92790    0.16414    0.61807    1.000
    Si4629   Si       0.91197    0.17496    0.49870    1.000
    Si4630   Si       0.96020    0.13026    0.52384    1.000
    Si4631   Si       0.85279    0.13148    0.68062    1.000
    Si4632   Si       0.78517    0.14026    0.65056    1.000
    Si4633   Si       0.79836    0.16223    0.72246    1.000
    N4634    N        0.80943    0.14048    0.68715    1.000
    N4635    N        0.86108    0.14456    0.63963    1.000
    Si4636   Si       0.96345    0.14868    0.63747    1.000
    N4637    N        0.87553    0.14837    0.71177    1.000
    Si4638   Si       0.90582    0.13061    0.73757    1.000
    N4639    N        0.97801    0.18019    0.66365    1.000
    Si4640   Si       0.89017    0.17717    0.63448    1.000
    N4641    N        0.92367    0.17085    0.74103    1.000
    Si4642   Si       0.89509    0.18844    0.71342    1.000
    N4643    N        0.80124    0.12387    0.61085    1.000
    N4644    N        0.76468    0.14584    0.74351    1.000
    Si4645   Si       0.83347    0.15304    0.83668    1.000
    N4646    N        0.82408    0.16672    0.75928    1.000
    N4647    N        0.76352    0.17131    0.80631    1.000
    Si4648   Si       0.84193    0.12917    0.76867    1.000
    N4649    N        0.74476    0.13787    0.86692    1.000
    N4650    N        0.90716    0.18383    0.96245    1.000
    N4651    N        0.87540    0.14753    0.84218    1.000
    N4652    N        0.92679    0.16160    0.80766    1.000
    N4653    N        0.98450    0.16250    0.77832    1.000
    Si4654   Si       0.90626    0.18027    0.84106    1.000
    Si4655   Si       0.94681    0.18400    0.77547    1.000
    N4656    N        0.93489    0.17242    0.87279    1.000
    Si4657   Si       0.95128    0.13077    0.87175    1.000
    N4658    N        0.81588    0.16405    0.87336    1.000
    N4659    N        0.84500    0.14675    0.98120    1.000
    Si4660   Si       0.81141    0.15869    0.95886    1.000
    Si4661   Si       0.77663    0.15367    0.89212    1.000
    N4662    N        0.79262    0.13226    0.92844    1.000
    N4663    N        0.77729    0.16239    0.98694    1.000
    N4664    N        0.94388    0.13548    0.99388    1.000
    Si4665   Si       0.88129    0.14896    0.95418    1.000
    Si4666   Si       0.94940    0.17312    0.97177    1.000
    N4667    N        0.96520    0.17909    0.93255    1.000
    N4668    N        0.87172    0.15810    0.91080    1.000
    Si4669   Si       0.87854    0.12626    0.88127    1.000
    Si4670   Si       0.75203    0.21386    0.07220    1.000
    N4671    N        0.77045    0.19160    0.10422    1.000
    N4672    N        0.82877    0.23071    0.11555    1.000
    N4673    N        0.74556    0.19315    0.03499    1.000
    N4674    N        0.88218    0.22849    0.01113    1.000
    N4675    N        0.93899    0.21003    0.04752    1.000
    Si4676   Si       0.96264    0.22771    0.01498    1.000
    Si4677   Si       0.89510    0.20436    0.04507    1.000
    N4678    N        0.88094    0.23648    0.07181    1.000
    N4679    N        0.96207    0.20081    0.11958    1.000
    Si4680   Si       0.96641    0.19067    0.07476    1.000
    N4681    N        0.83071    0.24457    0.18159    1.000
    N4682    N        0.82309    0.19092    0.23017    1.000
    Si4683   Si       0.81005    0.19299    0.12641    1.000
    N4684    N        0.76282    0.21771    0.20878    1.000
    Si4685   Si       0.80638    0.21615    0.19982    1.000
    N4686    N        0.79611    0.18644    0.16779    1.000
    Si4687   Si       0.93596    0.23448    0.13245    1.000
    N4688    N        0.95242    0.24066    0.17380    1.000
    Si4689   Si       0.86918    0.22531    0.17654    1.000
    N4690    N        0.89221    0.23741    0.14317    1.000
    Si4691   Si       0.90148    0.19641    0.23297    1.000
    N4692    N        0.94376    0.19843    0.23127    1.000
    N4693    N        0.88527    0.23337    0.21765    1.000
    Si4694   Si       0.95811    0.19759    0.19107    1.000
    N4695    N        0.97982    0.19028    0.99747    1.000
    N4696    N        0.80335    0.22691    0.99428    1.000
    Si4697   Si       0.76621    0.20228    0.99760    1.000
    N4698    N        0.82599    0.21535    0.30525    1.000
    Si4699   Si       0.84371    0.19988    0.34057    1.000
    N4700    N        0.75720    0.23269    0.32354    1.000
    Si4701   Si       0.74644    0.23917    0.36826    1.000
    N4702    N        0.81773    0.22817    0.36462    1.000
    Si4703   Si       0.74218    0.19344    0.30280    1.000
    Si4704   Si       0.81569    0.18805    0.27463    1.000
    N4705    N        0.88723    0.19358    0.27453    1.000
    N4706    N        0.97885    0.23349    0.34352    1.000
    N4707    N        0.88564    0.21453    0.33828    1.000
    Si4708   Si       0.96822    0.20391    0.26837    1.000
    Si4709   Si       0.89667    0.22720    0.29965    1.000
    Si4710   Si       0.97330    0.19059    0.34408    1.000
    N4711    N        0.94088    0.23354    0.28913    1.000
    Si4712   Si       0.80369    0.21408    0.40421    1.000
    N4713    N        0.76043    0.21045    0.39741    1.000
    N4714    N        0.80895    0.21179    0.48292    1.000
    Si4715   Si       0.90847    0.20100    0.37371    1.000
    Si4716   Si       0.89109    0.20293    0.44626    1.000
    N4717    N        0.88307    0.18538    0.40527    1.000
    N4718    N        0.87991    0.20383    0.48998    1.000
    N4719    N        0.93021    0.23337    0.39240    1.000
    N4720    N        0.88274    0.24413    0.43674    1.000
    Si4721   Si       0.82040    0.20540    0.52531    1.000
    Si4722   Si       0.75367    0.19882    0.53763    1.000
    N4723    N        0.78601    0.22693    0.54404    1.000
    N4724    N        0.84937    0.23566    0.54336    1.000
    Si4725   Si       0.74666    0.19370    0.61780    1.000
    N4726    N        0.87158    0.20988    0.60935    1.000
    Si4727   Si       0.97240    0.20755    0.52824    1.000
    Si4728   Si       0.88323    0.21921    0.56895    1.000
    N4729    N        0.96584    0.19733    0.57039    1.000
    N4730    N        0.77852    0.18293    0.64499    1.000
    Si4731   Si       0.79767    0.21277    0.67063    1.000
    N4732    N        0.78823    0.20380    0.71268    1.000
    N4733    N        0.83943    0.22820    0.66834    1.000
    Si4734   Si       0.78204    0.23984    0.73577    1.000
    N4735    N        0.88759    0.22913    0.72659    1.000
    Si4736   Si       0.92836    0.24076    0.73771    1.000
    N4737    N        0.95652    0.22752    0.70878    1.000
    N4738    N        0.94523    0.23857    0.63884    1.000
    Si4739   Si       0.94616    0.20856    0.67074    1.000
    N4740    N        0.90531    0.19216    0.67146    1.000
    Si4741   Si       0.85242    0.24445    0.62864    1.000
    Si4742   Si       0.85060    0.22784    0.83666    1.000
    N4743    N        0.78292    0.23084    0.78013    1.000
    N4744    N        0.82962    0.19348    0.81760    1.000
    Si4745   Si       0.79827    0.18848    0.78837    1.000
    Si4746   Si       0.89938    0.22748    0.97120    1.000
    N4747    N        0.93594    0.22475    0.77868    1.000
    N4748    N        0.89366    0.22055    0.83053    1.000
    Si4749   Si       0.82499    0.23242    0.95718    1.000
    N4750    N        0.84726    0.23015    0.88097    1.000
    Si4751   Si       0.76084    0.22861    0.92779    1.000
    N4752    N        0.82460    0.19357    0.93788    1.000
    N4753    N        0.74435    0.22298    0.96674    1.000
    N4754    N        0.91101    0.22704    0.90499    1.000
    N4755    N        0.75644    0.18778    0.91218    1.000
    Si4756   Si       0.84118    0.18801    0.89951    1.000
    N4757    N        0.93931    0.24216    0.98205    1.000
    N4758    N        0.97732    0.23183    0.88520    1.000
    Si4759   Si       0.94646    0.20384    0.90088    1.000
    Si4760   Si       0.79515    0.25716    0.02588    1.000
    N4761    N        0.83367    0.27771    0.02391    1.000
    N4762    N        0.75731    0.27721    0.01521    1.000
    Si4763   Si       0.79777    0.26145    0.10278    1.000
    N4764    N        0.74749    0.30076    0.08062    1.000
    N4765    N        0.78462    0.24624    0.06471    1.000
    Si4766   Si       0.87160    0.26287    0.03740    1.000
    N4767    N        0.90288    0.29301    0.04387    1.000
    Si4768   Si       0.91281    0.29560    0.08695    1.000
    N4769    N        0.87505    0.29382    0.10720    1.000
    N4770    N        0.94163    0.26632    0.10505    1.000
    Si4771   Si       0.86661    0.25095    0.10956    1.000
    Si4772   Si       0.96530    0.30021    0.11770    1.000
    Si4773   Si       0.75598    0.28691    0.16422    1.000
    Si4774   Si       0.82169    0.28290    0.19581    1.000
    N4775    N        0.76794    0.26300    0.13239    1.000
    Si4776   Si       0.75183    0.25771    0.22062    1.000
    N4777    N        0.83568    0.28260    0.23639    1.000
    N4778    N        0.77887    0.28745    0.20249    1.000
    N4779    N        0.89995    0.30222    0.21786    1.000
    Si4780   Si       0.87685    0.27108    0.24087    1.000
    N4781    N        0.97339    0.28638    0.22943    1.000
    Si4782   Si       0.97673    0.27392    0.18741    1.000
    N4783    N        0.95986    0.30429    0.16173    1.000
    N4784    N        0.82283    0.28517    0.33804    1.000
    N4785    N        0.78996    0.26519    0.28093    1.000
    N4786    N        0.91743    0.29722    0.39491    1.000
    Si4787   Si       0.80327    0.24907    0.32408    1.000
    Si4788   Si       0.80828    0.30170    0.26736    1.000
    Si4789   Si       0.97242    0.25872    0.30853    1.000
    N4790    N        0.88542    0.26800    0.28691    1.000
    N4791    N        0.94104    0.28291    0.33382    1.000
    Si4792   Si       0.90919    0.29924    0.30885    1.000
    Si4793   Si       0.95375    0.26249    0.36899    1.000
    N4794    N        0.76874    0.27533    0.37741    1.000
    Si4795   Si       0.81401    0.27322    0.38204    1.000
    N4796    N        0.81440    0.25089    0.42661    1.000
    N4797    N        0.76566    0.27186    0.48077    1.000
    Si4798   Si       0.85359    0.27683    0.43659    1.000
    N4799    N        0.83857    0.27184    0.48141    1.000
    Si4800   Si       0.80276    0.25147    0.46841    1.000
    N4801    N        0.84770    0.29637    0.39676    1.000
    N4802    N        0.94158    0.27033    0.45651    1.000
    Si4803   Si       0.97555    0.25184    0.47543    1.000
    N4804    N        0.97963    0.28848    0.39692    1.000
    Si4805   Si       0.91710    0.26280    0.42124    1.000
    Si4806   Si       0.75535    0.28865    0.52235    1.000
    N4807    N        0.82295    0.26318    0.60048    1.000
    Si4808   Si       0.81293    0.25717    0.55790    1.000
    N4809    N        0.79362    0.29266    0.54250    1.000
    N4810    N        0.76129    0.29892    0.61260    1.000
    Si4811   Si       0.80682    0.30282    0.61291    1.000
    Si4812   Si       0.93159    0.27085    0.54007    1.000
    N4813    N        0.89792    0.27563    0.50989    1.000
    Si4814   Si       0.92281    0.26564    0.61342    1.000
    N4815    N        0.91209    0.25159    0.57365    1.000
    N4816    N        0.95849    0.29390    0.61199    1.000
    N4817    N        0.96024    0.24736    0.51779    1.000
    Si4818   Si       0.86859    0.24350    0.50151    1.000
    Si4819   Si       0.80105    0.28748    0.68741    1.000
    N4820    N        0.81689    0.26321    0.72018    1.000
    N4821    N        0.77989    0.25375    0.66825    1.000
    Si4822   Si       0.74810    0.26897    0.64225    1.000
    Si4823   Si       0.85602    0.24878    0.70371    1.000
    N4824    N        0.82378    0.30194    0.65342    1.000
    Si4825   Si       0.98323    0.26336    0.63120    1.000
    Si4826   Si       0.86785    0.30430    0.66103    1.000
    Si4827   Si       0.97739    0.29610    0.74731    1.000
    N4828    N        0.88435    0.27592    0.63221    1.000
    N4829    N        0.87482    0.28845    0.70172    1.000
    N4830    N        0.93464    0.28764    0.73950    1.000
    N4831    N        0.83126    0.26294    0.82086    1.000
    Si4832   Si       0.78799    0.26023    0.81343    1.000
    Si4833   Si       0.85373    0.29598    0.80484    1.000
    N4834    N        0.76952    0.29940    0.81006    1.000
    N4835    N        0.88431    0.27641    0.78047    1.000
    N4836    N        0.93532    0.28365    0.82350    1.000
    Si4837   Si       0.97812    0.28498    0.82204    1.000
    Si4838   Si       0.91181    0.25239    0.80387    1.000
    Si4839   Si       0.81048    0.25651    0.88318    1.000
    N4840    N        0.79764    0.25054    0.92614    1.000
    Si4841   Si       0.79642    0.29399    0.93181    1.000
    N4842    N        0.81801    0.29925    0.88976    1.000
    N4843    N        0.75601    0.29993    0.94349    1.000
    Si4844   Si       0.86883    0.29232    0.95050    1.000
    N4845    N        0.88148    0.29613    0.90796    1.000
    N4846    N        0.86496    0.24963    0.94813    1.000
    Si4847   Si       0.94340    0.28196    0.96574    1.000
    N4848    N        0.90332    0.29767    0.97554    1.000
    Si4849   Si       0.98199    0.27393    0.89725    1.000
    N4850    N        0.94912    0.28947    0.92252    1.000
    Si4851   Si       0.87815    0.25122    0.90504    1.000
    N4852    N        0.97231    0.30290    0.99142    1.000
    Si4853   Si       0.73665    0.29749    0.98320    1.000
    N4854    N        0.77808    0.24876    0.85469    1.000
    Si4855   Si       0.89265    0.29921    0.74046    1.000
    Si4856   Si       0.77085    0.32133    0.10854    1.000
    N4857    N        0.79499    0.33676    0.02081    1.000
    Si4858   Si       0.83009    0.31601    0.00209    1.000
    N4859    N        0.86203    0.34101    0.01620    1.000
    N4860    N        0.81059    0.30400    0.10596    1.000
    N4861    N        0.93615    0.32851    0.10167    1.000
    Si4862   Si       0.90087    0.32154    0.01142    1.000
    N4863    N        0.93106    0.35204    0.01249    1.000
    Si4864   Si       0.84688    0.31831    0.12887    1.000
    Si4865   Si       0.76530    0.33083    0.21501    1.000
    N4866    N        0.76554    0.32682    0.15030    1.000
    N4867    N        0.85097    0.35621    0.22083    1.000
    N4868    N        0.84618    0.30916    0.17139    1.000
    N4869    N        0.89994    0.34942    0.16699    1.000
    N4870    N        0.94912    0.35014    0.21332    1.000
    Si4871   Si       0.94404    0.34400    0.17046    1.000
    Si4872   Si       0.87379    0.32898    0.19628    1.000
    Si4873   Si       0.93782    0.31372    0.23502    1.000
    N4874    N        0.83710    0.33031    0.28520    1.000
    Si4875   Si       0.84106    0.32383    0.32694    1.000
    N4876    N        0.77319    0.32398    0.25547    1.000
    N4877    N        0.82442    0.35852    0.34437    1.000
    Si4878   Si       0.74232    0.33922    0.28446    1.000
    N4879    N        0.88379    0.32696    0.33586    1.000
    Si4880   Si       0.96821    0.33645    0.29403    1.000
    N4881    N        0.93270    0.31681    0.27701    1.000
    N4882    N        0.94265    0.35881    0.32339    1.000
    N4883    N        0.76415    0.34980    0.37538    1.000
    Si4884   Si       0.74542    0.31106    0.38424    1.000
    N4885    N        0.74570    0.32157    0.42753    1.000
    N4886    N        0.88118    0.30862    0.45387    1.000
    N4887    N        0.89086    0.35824    0.39940    1.000
    Si4888   Si       0.89433    0.34822    0.44029    1.000
    N4889    N        0.93798    0.33677    0.44482    1.000
    Si4890   Si       0.92700    0.30645    0.47640    1.000
    Si4891   Si       0.97086    0.35522    0.46881    1.000
    Si4892   Si       0.95390    0.32165    0.40623    1.000
    Si4893   Si       0.88234    0.31992    0.38038    1.000
    N4894    N        0.97546    0.35759    0.38999    1.000
    N4895    N        0.81776    0.33677    0.58953    1.000
    Si4896   Si       0.81166    0.33383    0.54335    1.000
    N4897    N        0.84434    0.33536    0.51775    1.000
    N4898    N        0.90690    0.33934    0.50074    1.000
    Si4899   Si       0.94312    0.34841    0.52596    1.000
    Si4900   Si       0.95345    0.33060    0.59193    1.000
    N4901    N        0.93886    0.31463    0.55346    1.000
    Si4902   Si       0.77907    0.35201    0.71718    1.000
    N4903    N        0.76895    0.31374    0.69912    1.000
    N4904    N        0.82335    0.35032    0.71170    1.000
    N4905    N        0.87975    0.34476    0.66561    1.000
    N4906    N        0.93894    0.35695    0.62433    1.000
    N4907    N        0.96871    0.32153    0.49835    1.000
    Si4908   Si       0.86452    0.30322    0.49600    1.000
    Si4909   Si       0.78828    0.33409    0.79409    1.000
    N4910    N        0.76749    0.34738    0.75982    1.000
    N4911    N        0.82618    0.32222    0.78160    1.000
    Si4912   Si       0.84057    0.35148    0.75266    1.000
    Si4913   Si       0.91737    0.32239    0.83776    1.000
    N4914    N        0.92819    0.34750    0.80377    1.000
    N4915    N        0.87351    0.31627    0.84021    1.000
    Si4916   Si       0.97110    0.34990    0.79555    1.000
    N4917    N        0.98495    0.30942    0.78846    1.000
    Si4918   Si       0.97860    0.35384    0.87252    1.000
    N4919    N        0.88258    0.34075    0.74660    1.000
    N4920    N        0.93949    0.33274    0.87279    1.000
    Si4921   Si       0.85478    0.32050    0.88102    1.000
    N4922    N        0.82621    0.30435    0.96118    1.000
    N4923    N        0.91135    0.35554    0.92785    1.000
    Si4924   Si       0.91962    0.31905    0.90932    1.000
    Si4925   Si       0.96862    0.34640    0.99021    1.000
    Si4926   Si       0.76741    0.36115    0.99409    1.000
    N4927    N        0.76202    0.38803    0.02741    1.000
    Si4928   Si       0.82381    0.39614    0.10740    1.000
    N4929    N        0.82778    0.37304    0.06852    1.000
    Si4930   Si       0.85580    0.37785    0.03775    1.000
    N4931    N        0.83743    0.40604    0.01104    1.000
    Si4932   Si       0.75679    0.39995    0.10713    1.000
    Si4933   Si       0.78876    0.36333    0.05344    1.000
    N4934    N        0.77035    0.36179    0.09271    1.000
    Si4935   Si       0.94634    0.37043    0.10633    1.000
    N4936    N        0.89135    0.39491    0.05537    1.000
    N4937    N        0.95842    0.38333    0.06870    1.000
    Si4938   Si       0.92969    0.38814    0.03641    1.000
    N4939    N        0.98720    0.38199    0.01125    1.000
    Si4940   Si       0.74946    0.40207    0.21745    1.000
    Si4941   Si       0.81888    0.38546    0.21584    1.000
    N4942    N        0.79113    0.40027    0.14265    1.000
    N4943    N        0.77792    0.37280    0.20281    1.000
    Si4944   Si       0.76707    0.36921    0.16177    1.000
    N4945    N        0.83040    0.41932    0.19213    1.000
    N4946    N        0.84773    0.36302    0.12954    1.000
    N4947    N        0.94673    0.41249    0.24627    1.000
    N4948    N        0.91893    0.40032    0.12186    1.000
    Si4949   Si       0.88284    0.38462    0.14739    1.000
    N4950    N        0.97114    0.36624    0.14128    1.000
    N4951    N        0.89527    0.41502    0.17822    1.000
    Si4952   Si       0.97473    0.38226    0.22833    1.000
    Si4953   Si       0.78598    0.37141    0.34400    1.000
    N4954    N        0.82392    0.39714    0.25960    1.000
    Si4955   Si       0.76427    0.41273    0.30082    1.000
    N4956    N        0.76144    0.36890    0.30775    1.000
    N4957    N        0.78389    0.41734    0.34032    1.000
    N4958    N        0.74193    0.41333    0.25842    1.000
    Si4959   Si       0.85354    0.36554    0.26676    1.000
    Si4960   Si       0.90175    0.36826    0.32230    1.000
    Si4961   Si       0.90855    0.41656    0.26773    1.000
    N4962    N        0.97827    0.41350    0.35828    1.000
    N4963    N        0.88907    0.40334    0.34638    1.000
    N4964    N        0.89118    0.37994    0.28041    1.000
    Si4965   Si       0.97604    0.37130    0.34988    1.000
    Si4966   Si       0.75096    0.36810    0.41916    1.000
    N4967    N        0.76314    0.37669    0.46199    1.000
    N4968    N        0.77956    0.40248    0.40968    1.000
    Si4969   Si       0.78059    0.41434    0.45041    1.000
    Si4970   Si       0.88668    0.40165    0.38885    1.000
    Si4971   Si       0.85876    0.42125    0.44898    1.000
    N4972    N        0.87342    0.38178    0.46166    1.000
    N4973    N        0.82061    0.40823    0.57352    1.000
    Si4974   Si       0.83450    0.37606    0.60014    1.000
    Si4975   Si       0.78388    0.40671    0.55007    1.000
    N4976    N        0.74384    0.41029    0.56957    1.000
    N4977    N        0.78427    0.36576    0.53137    1.000
    Si4978   Si       0.75414    0.36135    0.50120    1.000
    Si4979   Si       0.97336    0.39208    0.57910    1.000
    N4980    N        0.87722    0.37432    0.59608    1.000
    N4981    N        0.87978    0.39756    0.52779    1.000
    Si4982   Si       0.89920    0.39642    0.56677    1.000
    N4983    N        0.93693    0.37849    0.55934    1.000
    N4984    N        0.96604    0.41524    0.61529    1.000
    Si4985   Si       0.87209    0.36487    0.50229    1.000
    N4986    N        0.96102    0.38410    0.49885    1.000
    N4987    N        0.77090    0.38864    0.69136    1.000
    Si4988   Si       0.79149    0.40429    0.65240    1.000
    N4989    N        0.75567    0.38693    0.63314    1.000
    N4990    N        0.82769    0.38135    0.64459    1.000
    Si4991   Si       0.84867    0.36995    0.68244    1.000
    N4992    N        0.86258    0.40432    0.70467    1.000
    N4993    N        0.97759    0.38951    0.68282    1.000
    Si4994   Si       0.95219    0.39183    0.64801    1.000
    N4995    N        0.90974    0.40672    0.65496    1.000
    Si4996   Si       0.89799    0.36732    0.63412    1.000
    N4997    N        0.82870    0.39360    0.76718    1.000
    Si4998   Si       0.80343    0.40400    0.80370    1.000
    Si4999   Si       0.76315    0.36827    0.85655    1.000
    N5000    N        0.83320    0.41543    0.83345    1.000
    N5001    N        0.78969    0.36642    0.82188    1.000
    Si5002   Si       0.85894    0.41854    0.74747    1.000
    Si5003   Si       0.90644    0.36562    0.77303    1.000
    N5004    N        0.89422    0.40635    0.77001    1.000
    N5005    N        0.98082    0.37366    0.75996    1.000
    Si5006   Si       0.94413    0.38566    0.92450    1.000
    Si5007   Si       0.82615    0.39684    0.87280    1.000
    Si5008   Si       0.76188    0.39671    0.92398    1.000
    N5009    N        0.85308    0.40054    0.94556    1.000
    N5010    N        0.78723    0.38653    0.88829    1.000
    N5011    N        0.78203    0.38151    0.95977    1.000
    Si5012   Si       0.81997    0.40437    0.97302    1.000
    N5013    N        0.85512    0.36516    0.88724    1.000
    Si5014   Si       0.87855    0.38259    0.91762    1.000
    Si5015   Si       0.96995    0.41776    0.99082    1.000
    N5016    N        0.91051    0.41469    0.90355    1.000
    N5017    N        0.97039    0.39481    0.89122    1.000
    N5018    N        0.97340    0.35994    0.94962    1.000
    Si5019   Si       0.78749    0.46405    0.06760    1.000
    N5020    N        0.77506    0.45323    0.02691    1.000
    Si5021   Si       0.83477    0.46671    0.11604    1.000
    N5022    N        0.85613    0.42585    0.11322    1.000
    N5023    N        0.78952    0.42461    0.08616    1.000
    N5024    N        0.82904    0.47605    0.07195    1.000
    Si5025   Si       0.74488    0.42632    0.04044    1.000
    N5026    N        0.91312    0.45653    0.07672    1.000
    Si5027   Si       0.92367    0.46201    0.03437    1.000
    N5028    N        0.93788    0.42645    0.01755    1.000
    N5029    N        0.88629    0.47491    0.01755    1.000
    N5030    N        0.97488    0.47896    0.09233    1.000
    Si5031   Si       0.89435    0.42032    0.09201    1.000
    Si5032   Si       0.77823    0.45508    0.24418    1.000
    N5033    N        0.80379    0.47201    0.14746    1.000
    Si5034   Si       0.79678    0.43454    0.16978    1.000
    N5035    N        0.76549    0.44134    0.20489    1.000
    N5036    N        0.82038    0.46890    0.23809    1.000
    Si5037   Si       0.86867    0.43533    0.20393    1.000
    Si5038   Si       0.95998    0.45057    0.22962    1.000
    Si5039   Si       0.93132    0.42687    0.15642    1.000
    N5040    N        0.87122    0.47591    0.19308    1.000
    N5041    N        0.96160    0.43436    0.18791    1.000
    N5042    N        0.92272    0.46865    0.14293    1.000
    N5043    N        0.84656    0.45060    0.31042    1.000
    Si5044   Si       0.80500    0.45699    0.32625    1.000
    N5045    N        0.79130    0.44284    0.28403    1.000
    Si5046   Si       0.83635    0.43973    0.26846    1.000
    N5047    N        0.91580    0.44174    0.30192    1.000
    Si5048   Si       0.88398    0.44321    0.33086    1.000
    N5049    N        0.98041    0.47165    0.30693    1.000
    N5050    N        0.88112    0.46943    0.36490    1.000
    Si5051   Si       0.93945    0.47728    0.29207    1.000
    N5052    N        0.87517    0.43376    0.24710    1.000
    N5053    N        0.93388    0.47813    0.24927    1.000
    N5054    N        0.80785    0.46423    0.37409    1.000
    Si5055   Si       0.77720    0.43255    0.38035    1.000
    Si5056   Si       0.84694    0.46507    0.39307    1.000
    N5057    N        0.75755    0.44949    0.45558    1.000
    N5058    N        0.82010    0.42727    0.46512    1.000
    N5059    N        0.85395    0.42390    0.40651    1.000
    N5060    N        0.91983    0.42881    0.40166    1.000
    Si5061   Si       0.91461    0.47273    0.39322    1.000
    Si5062   Si       0.96198    0.43635    0.39110    1.000
    N5063    N        0.88263    0.45227    0.46883    1.000
    N5064    N        0.95365    0.47624    0.37363    1.000
    N5065    N        0.98790    0.42535    0.42464    1.000
    N5066    N        0.73714    0.44667    0.38596    1.000
    N5067    N        0.78400    0.43888    0.51935    1.000
    N5068    N        0.85092    0.45593    0.52639    1.000
    Si5069   Si       0.84716    0.44389    0.56854    1.000
    N5070    N        0.83471    0.47579    0.59373    1.000
    Si5071   Si       0.81936    0.45560    0.49917    1.000
    Si5072   Si       0.88609    0.43628    0.50974    1.000
    N5073    N        0.89142    0.44062    0.57571    1.000
    N5074    N        0.92832    0.44295    0.51996    1.000
    Si5075   Si       0.91929    0.46701    0.55460    1.000
    Si5076   Si       0.96886    0.45693    0.61405    1.000
    Si5077   Si       0.96810    0.42362    0.51611    1.000
    N5078    N        0.95293    0.47456    0.57981    1.000
    N5079    N        0.80229    0.44651    0.65202    1.000
    N5080    N        0.78888    0.44978    0.72246    1.000
    Si5081   Si       0.77469    0.45894    0.68325    1.000
    Si5082   Si       0.83281    0.47382    0.63679    1.000
    N5083    N        0.85713    0.46097    0.74129    1.000
    N5084    N        0.87088    0.46314    0.65609    1.000
    Si5085   Si       0.88714    0.43163    0.68399    1.000
    N5086    N        0.94773    0.47536    0.64703    1.000
    N5087    N        0.91076    0.46293    0.70527    1.000
    N5088    N        0.99361    0.41939    0.55180    1.000
    Si5089   Si       0.75227    0.46009    0.49942    1.000
    Si5090   Si       0.77115    0.45496    0.76203    1.000
    Si5091   Si       0.84692    0.45507    0.85208    1.000
    N5092    N        0.76840    0.42887    0.79852    1.000
    Si5093   Si       0.92036    0.43202    0.79562    1.000
    N5094    N        0.96175    0.43473    0.78231    1.000
    N5095    N        0.97811    0.44327    0.85160    1.000
    N5096    N        0.90960    0.47332    0.78313    1.000
    N5097    N        0.88518    0.47328    0.85296    1.000
    Si5098   Si       0.98750    0.45374    0.81118    1.000
    N5099    N        0.92265    0.41698    0.83548    1.000
    N5100    N        0.74052    0.43392    0.93233    1.000
    Si5101   Si       0.75237    0.47581    0.93224    1.000
    Si5102   Si       0.84306    0.44392    0.93266    1.000
    N5103    N        0.80903    0.44417    0.96069    1.000
    N5104    N        0.83937    0.43687    0.89150    1.000
    Si5105   Si       0.79147    0.46959    0.99141    1.000
    Si5106   Si       0.93988    0.42802    0.87359    1.000
    N5107    N        0.94816    0.41982    0.95207    1.000
    Si5108   Si       0.92015    0.44938    0.93315    1.000
    N5109    N        0.93862    0.47035    0.89904    1.000
    N5110    N        0.87982    0.46318    0.94457    1.000
    N5111    N        0.81500    0.48054    0.83946    1.000
    N5112    N        0.75815    0.49321    0.07957    1.000
    N5113    N        0.82295    0.49327    0.00453    1.000
    Si5114   Si       0.85121    0.49079    0.03726    1.000
    Si5115   Si       0.77014    0.53242    0.09184    1.000
    N5116    N        0.86670    0.52506    0.05908    1.000
    N5117    N        0.92216    0.52563    0.09587    1.000
    N5118    N        0.95231    0.49489    0.02992    1.000
    Si5119   Si       0.87907    0.52653    0.10075    1.000
    Si5120   Si       0.93387    0.48373    0.10435    1.000
    Si5121   Si       0.98334    0.51314    0.05353    1.000
    N5122    N        0.74983    0.50959    0.18225    1.000
    Si5123   Si       0.78893    0.51081    0.16419    1.000
    N5124    N        0.81454    0.52551    0.19582    1.000
    Si5125   Si       0.84194    0.49962    0.21839    1.000
    N5126    N        0.86566    0.49485    0.12594    1.000
    Si5127   Si       0.89189    0.49220    0.16012    1.000
    N5128    N        0.86760    0.52072    0.24575    1.000
    N5129    N        0.90194    0.53230    0.17070    1.000
    N5130    N        0.99093    0.50610    0.21226    1.000
    Si5131   Si       0.77243    0.50886    0.28634    1.000
    N5132    N        0.77432    0.48827    0.32907    1.000
    N5133    N        0.82377    0.53224    0.35798    1.000
    N5134    N        0.75068    0.48686    0.25750    1.000
    N5135    N        0.80857    0.52852    0.27766    1.000
    Si5136   Si       0.73846    0.51170    0.33815    1.000
    N5137    N        0.88115    0.52935    0.48052    1.000
    Si5138   Si       0.98554    0.48633    0.34806    1.000
    N5139    N        0.91994    0.51571    0.29650    1.000
    Si5140   Si       0.90929    0.51382    0.25460    1.000
    Si5141   Si       0.79219    0.50666    0.37324    1.000
    Si5142   Si       0.73791    0.53782    0.40787    1.000
    N5143    N        0.78143    0.51243    0.41613    1.000
    N5144    N        0.81175    0.49628    0.48620    1.000
    N5145    N        0.84722    0.49366    0.42545    1.000
    Si5146   Si       0.81262    0.51083    0.44583    1.000
    N5147    N        0.91907    0.49900    0.42722    1.000
    Si5148   Si       0.95623    0.51807    0.43618    1.000
    Si5149   Si       0.88291    0.49546    0.45151    1.000
    N5150    N        0.74262    0.53603    0.30192    1.000
    Si5151   Si       0.82247    0.52029    0.59452    1.000
    N5152    N        0.78691    0.51959    0.56485    1.000
    Si5153   Si       0.79107    0.52335    0.51816    1.000
    Si5154   Si       0.75063    0.53154    0.58321    1.000
    N5155    N        0.75214    0.50054    0.51006    1.000
    N5156    N        0.86653    0.53703    0.58653    1.000
    Si5157   Si       0.95787    0.51440    0.56362    1.000
    N5158    N        0.92253    0.50957    0.53775    1.000
    Si5159   Si       0.91952    0.53651    0.50261    1.000
    N5160    N        0.77300    0.50296    0.68299    1.000
    N5161    N        0.82023    0.51692    0.63817    1.000
    N5162    N        0.83089    0.51657    0.71170    1.000
    Si5163   Si       0.80855    0.53104    0.67781    1.000
    Si5164   Si       0.81996    0.48167    0.73359    1.000
    N5165    N        0.89452    0.52513    0.74094    1.000
    Si5166   Si       0.95237    0.51956    0.64083    1.000
    Si5167   Si       0.90837    0.48253    0.66351    1.000
    Si5168   Si       0.89713    0.48258    0.74209    1.000
    N5169    N        0.90272    0.51966    0.64059    1.000
    N5170    N        0.74370    0.49924    0.61238    1.000
    Si5171   Si       0.81892    0.50473    0.80432    1.000
    N5172    N        0.76701    0.52651    0.86213    1.000
    N5173    N        0.86125    0.51526    0.80525    1.000
    N5174    N        0.79894    0.48575    0.77187    1.000
    Si5175   Si       0.77697    0.48407    0.85816    1.000
    N5176    N        0.93283    0.48346    0.96782    1.000
    Si5177   Si       0.89925    0.49629    0.81647    1.000
    N5178    N        0.93304    0.51680    0.83891    1.000
    Si5179   Si       0.97797    0.52242    0.83425    1.000
    N5180    N        0.87751    0.53065    0.98311    1.000
    Si5181   Si       0.80122    0.52266    0.90726    1.000
    N5182    N        0.75479    0.48650    0.97482    1.000
    N5183    N        0.83232    0.51861    0.93914    1.000
    Si5184   Si       0.83098    0.52910    0.98115    1.000
    N5185    N        0.78249    0.48194    0.90257    1.000
    Si5186   Si       0.96399    0.51126    0.98608    1.000
    Si5187   Si       0.97637    0.49035    0.91061    1.000
    Si5188   Si       0.89108    0.48988    0.97746    1.000
    N5189    N        0.98305    0.51589    0.94566    1.000
    Si5190   Si       0.91376    0.49709    0.87609    1.000
    N5191    N        0.90239    0.52886    0.89996    1.000
    Si5192   Si       0.79584    0.57187    0.02775    1.000
    N5193    N        0.85418    0.56091    0.10706    1.000
    N5194    N        0.79812    0.54922    0.06317    1.000
    N5195    N        0.83922    0.58228    0.02924    1.000
    Si5196   Si       0.84169    0.55774    0.06493    1.000
    Si5197   Si       0.96704    0.57375    0.01185    1.000
    Si5198   Si       0.94416    0.56271    0.08819    1.000
    N5199    N        0.94085    0.57821    0.04580    1.000
    N5200    N        0.93918    0.59130    0.12065    1.000
    N5201    N        0.98284    0.54342    0.08440    1.000
    N5202    N        0.83013    0.58647    0.17270    1.000
    Si5203   Si       0.80769    0.56793    0.20417    1.000
    N5204    N        0.76619    0.57250    0.20663    1.000
    Si5205   Si       0.82023    0.57324    0.13167    1.000
    N5206    N        0.82945    0.58333    0.23890    1.000
    N5207    N        0.79100    0.53840    0.13108    1.000
    Si5208   Si       0.97224    0.59570    0.14755    1.000
    N5209    N        0.92962    0.54853    0.23618    1.000
    Si5210   Si       0.92533    0.56023    0.19516    1.000
    N5211    N        0.96642    0.56672    0.18014    1.000
    Si5212   Si       0.83916    0.56713    0.33924    1.000
    Si5213   Si       0.77175    0.57879    0.35885    1.000
    Si5214   Si       0.84361    0.54982    0.26614    1.000
    N5215    N        0.80327    0.58958    0.32806    1.000
    N5216    N        0.86426    0.56113    0.30525    1.000
    N5217    N        0.85778    0.59082    0.37215    1.000
    N5218    N        0.75870    0.53875    0.36717    1.000
    Si5219   Si       0.90609    0.55312    0.31453    1.000
    Si5220   Si       0.95443    0.57359    0.26077    1.000
    N5221    N        0.91764    0.56043    0.35710    1.000
    N5222    N        0.92598    0.58358    0.29247    1.000
    Si5223   Si       0.96119    0.55578    0.36460    1.000
    N5224    N        0.97574    0.59638    0.36823    1.000
    Si5225   Si       0.84964    0.55942    0.48523    1.000
    Si5226   Si       0.79064    0.58224    0.43455    1.000
    N5227    N        0.75028    0.56770    0.43728    1.000
    N5228    N        0.82170    0.55450    0.45078    1.000
    N5229    N        0.78983    0.59898    0.39471    1.000
    Si5230   Si       0.98885    0.58994    0.41057    1.000
    Si5231   Si       0.98246    0.57603    0.47498    1.000
    N5232    N        0.95265    0.54359    0.47424    1.000
    N5233    N        0.97036    0.54659    0.40505    1.000
    N5234    N        0.76474    0.56034    0.51288    1.000
    Si5235   Si       0.84842    0.56656    0.56224    1.000
    N5236    N        0.75374    0.57260    0.60300    1.000
    N5237    N        0.81472    0.57368    0.58604    1.000
    N5238    N        0.83107    0.55001    0.52344    1.000
    Si5239   Si       0.96904    0.58073    0.59585    1.000
    N5240    N        0.91249    0.57665    0.52061    1.000
    Si5241   Si       0.90322    0.54502    0.60564    1.000
    N5242    N        0.94783    0.54068    0.59840    1.000
    Si5243   Si       0.77358    0.58669    0.70380    1.000
    N5244    N        0.81210    0.57657    0.68541    1.000
    N5245    N        0.77527    0.56436    0.74124    1.000
    N5246    N        0.74251    0.56606    0.67773    1.000
    Si5247   Si       0.86066    0.54568    0.72386    1.000
    N5248    N        0.98690    0.59279    0.63352    1.000
    N5249    N        0.94433    0.53941    0.68174    1.000
    N5250    N        0.90593    0.58302    0.62658    1.000
    N5251    N        0.87829    0.57204    0.69204    1.000
    Si5252   Si       0.91665    0.57025    0.66769    1.000
    Si5253   Si       0.97439    0.53902    0.71321    1.000
    Si5254   Si       0.77330    0.55573    0.82798    1.000
    N5255    N        0.84802    0.57427    0.75699    1.000
    Si5256   Si       0.80610    0.57912    0.77085    1.000
    N5257    N        0.80805    0.54770    0.80143    1.000
    Si5258   Si       0.82698    0.58344    0.86148    1.000
    N5259    N        0.85270    0.58957    0.82816    1.000
    N5260    N        0.78564    0.59104    0.84989    1.000
    Si5261   Si       0.85975    0.55824    0.79758    1.000
    N5262    N        0.97384    0.56417    0.81661    1.000
    Si5263   Si       0.93150    0.56041    0.83152    1.000
    N5264    N        0.90497    0.56220    0.79834    1.000
    Si5265   Si       0.91710    0.55692    0.75730    1.000
    N5266    N        0.92565    0.58736    0.86457    1.000
    N5267    N        0.95915    0.55118    0.75045    1.000
    Si5268   Si       0.98588    0.58179    0.77481    1.000
    Si5269   Si       0.75979    0.56126    0.96173    1.000
    N5270    N        0.83314    0.54654    0.88456    1.000
    N5271    N        0.79387    0.55102    0.98990    1.000
    N5272    N        0.76968    0.54710    0.92312    1.000
    Si5273   Si       0.86367    0.53998    0.91687    1.000
    Si5274   Si       0.97809    0.56089    0.94713    1.000
    N5275    N        0.95556    0.58506    0.91931    1.000
    N5276    N        0.94449    0.55612    0.97722    1.000
    Si5277   Si       0.90176    0.56545    0.97508    1.000
    N5278    N        0.88363    0.57636    0.93339    1.000
    Si5279   Si       0.91765    0.56890    0.90365    1.000
    Si5280   Si       0.77662    0.61950    0.08206    1.000
    N5281    N        0.80677    0.60918    0.11211    1.000
    N5282    N        0.77560    0.60891    0.03744    1.000
    Si5283   Si       0.85356    0.61204    0.00190    1.000
    N5284    N        0.85178    0.65068    0.02213    1.000
    Si5285   Si       0.75914    0.62628    0.00302    1.000
    N5286    N        0.89177    0.62285    0.07408    1.000
    Si5287   Si       0.91375    0.61094    0.03844    1.000
    Si5288   Si       0.90975    0.62400    0.11591    1.000
    N5289    N        0.93691    0.64667    0.03256    1.000
    N5290    N        0.98177    0.61319    0.99852    1.000
    Si5291   Si       0.96317    0.65120    0.99705    1.000
    N5292    N        0.89522    0.59923    0.00009    1.000
    Si5293   Si       0.83370    0.64168    0.12466    1.000
    Si5294   Si       0.82292    0.62726    0.23881    1.000
    N5295    N        0.78155    0.63937    0.22207    1.000
    Si5296   Si       0.75444    0.60700    0.23065    1.000
    N5297    N        0.85054    0.64223    0.20984    1.000
    Si5298   Si       0.86597    0.61115    0.17936    1.000
    N5299    N        0.96440    0.63296    0.16870    1.000
    N5300    N        0.95784    0.61128    0.23949    1.000
    Si5301   Si       0.93884    0.62517    0.20269    1.000
    N5302    N        0.87315    0.62974    0.13950    1.000
    N5303    N        0.90608    0.59945    0.19128    1.000
    Si5304   Si       0.78988    0.62194    0.29975    1.000
    N5305    N        0.81967    0.64363    0.27828    1.000
    N5306    N        0.76142    0.60090    0.27340    1.000
    N5307    N        0.77129    0.65186    0.32709    1.000
    N5308    N        0.83356    0.65455    0.35985    1.000
    Si5309   Si       0.97533    0.64057    0.26662    1.000
    Si5310   Si       0.91219    0.62628    0.29677    1.000
    N5311    N        0.88425    0.63226    0.26654    1.000
    N5312    N        0.89868    0.62719    0.33852    1.000
    N5313    N        0.91180    0.62339    0.40266    1.000
    Si5314   Si       0.90050    0.59799    0.37033    1.000
    Si5315   Si       0.82843    0.61939    0.38788    1.000
    Si5316   Si       0.83381    0.63081    0.46704    1.000
    N5317    N        0.79316    0.61219    0.47033    1.000
    N5318    N        0.84282    0.63588    0.42495    1.000
    N5319    N        0.85826    0.60230    0.48895    1.000
    Si5320   Si       0.94021    0.63660    0.43122    1.000
    N5321    N        0.96416    0.60235    0.44350    1.000
    Si5322   Si       0.88244    0.65288    0.41905    1.000
    N5323    N        0.77814    0.61997    0.54306    1.000
    N5324    N        0.79060    0.63641    0.60822    1.000
    Si5325   Si       0.78068    0.60176    0.58444    1.000
    Si5326   Si       0.76853    0.60231    0.50457    1.000
    N5327    N        0.94668    0.61093    0.57373    1.000
    N5328    N        0.91185    0.63972    0.52366    1.000
    Si5329   Si       0.88363    0.61517    0.60788    1.000
    Si5330   Si       0.94254    0.60707    0.53031    1.000
    Si5331   Si       0.88281    0.60842    0.52440    1.000
    N5332    N        0.90512    0.65240    0.61210    1.000
    Si5333   Si       0.94375    0.65101    0.59127    1.000
    N5334    N        0.87209    0.60329    0.56632    1.000
    N5335    N        0.98048    0.60079    0.51069    1.000
    N5336    N        0.75220    0.62082    0.72294    1.000
    N5337    N        0.85224    0.62029    0.64045    1.000
    N5338    N        0.85810    0.63296    0.71541    1.000
    Si5339   Si       0.82409    0.65078    0.63194    1.000
    Si5340   Si       0.84811    0.60326    0.68303    1.000
    N5341    N        0.91362    0.60077    0.74589    1.000
    N5342    N        0.94172    0.60742    0.68197    1.000
    Si5343   Si       0.97485    0.62790    0.65767    1.000
    Si5344   Si       0.94408    0.62114    0.72244    1.000
    N5345    N        0.97329    0.65735    0.62411    1.000
    N5346    N        0.98340    0.61121    0.74280    1.000
    Si5347   Si       0.78604    0.62902    0.82660    1.000
    N5348    N        0.78633    0.61616    0.78432    1.000
    Si5349   Si       0.77012    0.64381    0.75426    1.000
    N5350    N        0.82218    0.64502    0.84171    1.000
    Si5351   Si       0.85961    0.63342    0.82291    1.000
    N5352    N        0.88143    0.64806    0.93906    1.000
    N5353    N        0.86285    0.64640    0.78073    1.000
    Si5354   Si       0.87260    0.61189    0.75172    1.000
    Si5355   Si       0.81911    0.64791    0.88408    1.000
    N5356    N        0.76341    0.60331    0.96573    1.000
    Si5357   Si       0.79244    0.63335    0.95146    1.000
    N5358    N        0.84063    0.61221    0.89306    1.000
    N5359    N        0.83171    0.61480    0.96372    1.000
    N5360    N        0.78394    0.64769    0.91121    1.000
    Si5361   Si       0.86033    0.61223    0.93103    1.000
    Si5362   Si       0.95357    0.61521    0.88446    1.000
    N5363    N        0.93618    0.65287    0.89343    1.000
    N5364    N        0.78686    0.65811    0.98787    1.000
    Si5365   Si       0.80457    0.69314    0.08079    1.000
    N5366    N        0.80896    0.70324    0.03938    1.000
    Si5367   Si       0.82166    0.67667    0.00582    1.000
    N5368    N        0.84072    0.66765    0.09141    1.000
    N5369    N        0.77374    0.66387    0.09257    1.000
    N5370    N        0.89736    0.69335    0.06191    1.000
    Si5371   Si       0.93821    0.67560    0.06612    1.000
    N5372    N        0.97097    0.70442    0.06271    1.000
    Si5373   Si       0.87082    0.65973    0.06060    1.000
    N5374    N        0.93900    0.65709    0.10574    1.000
    Si5375   Si       0.77280    0.69201    0.13464    1.000
    N5376    N        0.81301    0.66732    0.15441    1.000
    N5377    N        0.80632    0.70150    0.21559    1.000
    Si5378   Si       0.76704    0.68090    0.21417    1.000
    N5379    N        0.75209    0.68600    0.17381    1.000
    Si5380   Si       0.83395    0.68067    0.19035    1.000
    N5381    N        0.93335    0.70036    0.15505    1.000
    N5382    N        0.91715    0.66221    0.21077    1.000
    Si5383   Si       0.91189    0.69808    0.19200    1.000
    Si5384   Si       0.95980    0.67034    0.14253    1.000
    N5385    N        0.86878    0.70371    0.18361    1.000
    Si5386   Si       0.88259    0.65947    0.23446    1.000
    Si5387   Si       0.80305    0.67865    0.34278    1.000
    Si5388   Si       0.84643    0.67802    0.28734    1.000
    N5389    N        0.81834    0.70252    0.31110    1.000
    N5390    N        0.78062    0.70658    0.36901    1.000
    N5391    N        0.86476    0.69622    0.25130    1.000
    N5392    N        0.87884    0.68563    0.31412    1.000
    Si5393   Si       0.96123    0.68325    0.32285    1.000
    Si5394   Si       0.87631    0.66192    0.34887    1.000
    N5395    N        0.98008    0.66105    0.35642    1.000
    N5396    N        0.83238    0.67116    0.48339    1.000
    Si5397   Si       0.79880    0.69990    0.47479    1.000
    N5398    N        0.76311    0.67290    0.49192    1.000
    N5399    N        0.96673    0.67014    0.42593    1.000
    Si5400   Si       0.91676    0.67050    0.49483    1.000
    N5401    N        0.88791    0.68427    0.38604    1.000
    N5402    N        0.90624    0.65511    0.45607    1.000
    Si5403   Si       0.96959    0.69781    0.46154    1.000
    N5404    N        0.88818    0.70547    0.49337    1.000
    N5405    N        0.95860    0.67854    0.49837    1.000
    N5406    N        0.73816    0.69159    0.42279    1.000
    N5407    N        0.94498    0.65499    0.29330    1.000
    N5408    N        0.81595    0.68166    0.54405    1.000
    Si5409   Si       0.83409    0.70407    0.57777    1.000
    Si5410   Si       0.84924    0.69993    0.51433    1.000
    Si5411   Si       0.77725    0.66498    0.53231    1.000
    N5412    N        0.74918    0.68549    0.55777    1.000
    N5413    N        0.84773    0.68439    0.61365    1.000
    N5414    N        0.94056    0.68835    0.56537    1.000
    Si5415   Si       0.97604    0.68104    0.54006    1.000
    N5416    N        0.86714    0.71518    0.55356    1.000
    N5417    N        0.74846    0.69412    0.62335    1.000
    N5418    N        0.80415    0.66489    0.73849    1.000
    N5419    N        0.75046    0.69467    0.70178    1.000
    Si5420   Si       0.79140    0.68410    0.70085    1.000
    N5421    N        0.79782    0.66246    0.66474    1.000
    Si5422   Si       0.84884    0.66770    0.74228    1.000
    Si5423   Si       0.76312    0.65758    0.63806    1.000
    N5424    N        0.88910    0.70392    0.66927    1.000
    Si5425   Si       0.88891    0.68950    0.62828    1.000
    N5426    N        0.94209    0.66414    0.71386    1.000
    Si5427   Si       0.96377    0.69838    0.72939    1.000
    N5428    N        0.74908    0.67579    0.77713    1.000
    N5429    N        0.84783    0.71219    0.81649    1.000
    Si5430   Si       0.83972    0.71299    0.86119    1.000
    N5431    N        0.86802    0.70442    0.75667    1.000
    Si5432   Si       0.88018    0.68523    0.79779    1.000
    Si5433   Si       0.92745    0.67876    0.85643    1.000
    Si5434   Si       0.95884    0.69832    0.79873    1.000
    N5435    N        0.96240    0.66883    0.83194    1.000
    N5436    N        0.91815    0.70744    0.79044    1.000
    N5437    N        0.97945    0.68010    0.76453    1.000
    N5438    N        0.89078    0.66396    0.83624    1.000
    N5439    N        0.83813    0.69944    0.97306    1.000
    N5440    N        0.84006    0.68508    0.89527    1.000
    Si5441   Si       0.85801    0.68547    0.93705    1.000
    Si5442   Si       0.96848    0.71060    0.97475    1.000
    N5443    N        0.94351    0.67300    0.96512    1.000
    N5444    N        0.89440    0.70570    0.92688    1.000
    Si5445   Si       0.91825    0.66892    0.93030    1.000
    N5446    N        0.75587    0.65447    0.84617    1.000
    Si5447   Si       0.74583    0.65866    0.88824    1.000
    Si5448   Si       0.81149    0.74537    0.03334    1.000
    N5449    N        0.84639    0.75701    0.01183    1.000
    N5450    N        0.85318    0.74444    0.08050    1.000
    Si5451   Si       0.82047    0.76335    0.10149    1.000
    N5452    N        0.79598    0.72175    0.11291    1.000
    N5453    N        0.79092    0.76703    0.06330    1.000
    Si5454   Si       0.95563    0.74532    0.06634    1.000
    N5455    N        0.92597    0.74287    0.09766    1.000
    N5456    N        0.92183    0.75031    0.03690    1.000
    Si5457   Si       0.89389    0.73571    0.07023    1.000
    N5458    N        0.98465    0.77352    0.08032    1.000
    N5459    N        0.85254    0.75916    0.21284    1.000
    Si5460   Si       0.81189    0.74456    0.22599    1.000
    N5461    N        0.78214    0.76297    0.20123    1.000
    N5462    N        0.83048    0.76465    0.14713    1.000
    Si5463   Si       0.86229    0.74780    0.17164    1.000
    Si5464   Si       0.96054    0.74680    0.22886    1.000
    N5465    N        0.90096    0.76216    0.15985    1.000
    N5466    N        0.91815    0.72987    0.22148    1.000
    N5467    N        0.96881    0.75909    0.15574    1.000
    Si5468   Si       0.88116    0.73784    0.24167    1.000
    Si5469   Si       0.93352    0.74131    0.13890    1.000
    Si5470   Si       0.79910    0.73996    0.30185    1.000
    N5471    N        0.81396    0.75917    0.26730    1.000
    N5472    N        0.75862    0.72437    0.30481    1.000
    Si5473   Si       0.74602    0.71771    0.34496    1.000
    N5474    N        0.87452    0.74394    0.35108    1.000
    N5475    N        0.89080    0.75546    0.27947    1.000
    Si5476   Si       0.94369    0.75511    0.34344    1.000
    N5477    N        0.97641    0.76464    0.26575    1.000
    Si5478   Si       0.89298    0.72679    0.31353    1.000
    N5479    N        0.98617    0.76047    0.33708    1.000
    N5480    N        0.93528    0.71858    0.32334    1.000
    N5481    N        0.76162    0.72684    0.47072    1.000
    Si5482   Si       0.83291    0.75119    0.42793    1.000
    N5483    N        0.75985    0.76062    0.41721    1.000
    Si5484   Si       0.77163    0.71858    0.40993    1.000
    Si5485   Si       0.75203    0.76762    0.45921    1.000
    N5486    N        0.81128    0.71264    0.42967    1.000
    N5487    N        0.87612    0.73684    0.42682    1.000
    Si5488   Si       0.89894    0.73640    0.46405    1.000
    Si5489   Si       0.89306    0.72809    0.38735    1.000
    N5490    N        0.93216    0.74734    0.38379    1.000
    Si5491   Si       0.95268    0.75816    0.42066    1.000
    N5492    N        0.94025    0.72914    0.45008    1.000
    Si5493   Si       0.81829    0.77321    0.49658    1.000
    N5494    N        0.80084    0.72760    0.59221    1.000
    N5495    N        0.82252    0.73025    0.49624    1.000
    Si5496   Si       0.80971    0.75841    0.61897    1.000
    Si5497   Si       0.76195    0.71571    0.58646    1.000
    Si5498   Si       0.91397    0.73187    0.69236    1.000
    N5499    N        0.90549    0.72411    0.60860    1.000
    N5500    N        0.96268    0.75775    0.59498    1.000
    N5501    N        0.91843    0.76001    0.54568    1.000
    Si5502   Si       0.91099    0.72103    0.56524    1.000
    N5503    N        0.81656    0.71795    0.70007    1.000
    N5504    N        0.76473    0.76477    0.69855    1.000
    Si5505   Si       0.85349    0.72642    0.67972    1.000
    Si5506   Si       0.79797    0.75052    0.72302    1.000
    N5507    N        0.84207    0.75269    0.64686    1.000
    Si5508   Si       0.92818    0.75767    0.62172    1.000
    N5509    N        0.93389    0.72874    0.72964    1.000
    N5510    N        0.87703    0.75220    0.70734    1.000
    N5511    N        0.93692    0.75819    0.66584    1.000
    Si5512   Si       0.84249    0.73248    0.77840    1.000
    Si5513   Si       0.77563    0.75358    0.84154    1.000
    N5514    N        0.80086    0.73302    0.76325    1.000
    N5515    N        0.75678    0.72175    0.81765    1.000
    Si5516   Si       0.76063    0.72112    0.77387    1.000
    N5517    N        0.74131    0.76675    0.86569    1.000
    Si5518   Si       0.97930    0.73613    0.85320    1.000
    N5519    N        0.87268    0.76493    0.77699    1.000
    Si5520   Si       0.90104    0.73279    0.75884    1.000
    N5521    N        0.93900    0.72207    0.86058    1.000
    N5522    N        0.98442    0.73017    0.81093    1.000
    N5523    N        0.80354    0.73589    0.86968    1.000
    Si5524   Si       0.75369    0.74589    0.96927    1.000
    N5525    N        0.78799    0.74756    0.99506    1.000
    N5526    N        0.76614    0.75165    0.92840    1.000
    Si5527   Si       0.80374    0.75907    0.90764    1.000
    Si5528   Si       0.82640    0.74099    0.97433    1.000
    N5529    N        0.83884    0.74952    0.93229    1.000
    N5530    N        0.87296    0.73859    0.87077    1.000
    N5531    N        0.91087    0.76890    0.90882    1.000
    Si5532   Si       0.91340    0.75369    0.86802    1.000
    Si5533   Si       0.87821    0.74195    0.91445    1.000
    N5534    N        0.95918    0.75213    0.97636    1.000
    N5535    N        0.73691    0.75270    0.75555    1.000
    Si5536   Si       0.76397    0.79922    0.05095    1.000
    N5537    N        0.82753    0.80662    0.09637    1.000
    N5538    N        0.75845    0.81550    0.00951    1.000
    Si5539   Si       0.86359    0.79548    0.00265    1.000
    Si5540   Si       0.86352    0.82355    0.07609    1.000
    N5541    N        0.88377    0.81548    0.03841    1.000
    N5542    N        0.95153    0.81132    0.02007    1.000
    N5543    N        0.89142    0.81647    0.10737    1.000
    Si5544   Si       0.93291    0.77442    0.00356    1.000
    Si5545   Si       0.74571    0.77967    0.21714    1.000
    N5546    N        0.77504    0.80544    0.13996    1.000
    Si5547   Si       0.85435    0.80414    0.21391    1.000
    N5548    N        0.75528    0.82185    0.23050    1.000
    N5549    N        0.81721    0.81787    0.19465    1.000
    Si5550   Si       0.80078    0.78423    0.16919    1.000
    N5551    N        0.88205    0.82427    0.18617    1.000
    Si5552   Si       0.96526    0.79886    0.17096    1.000
    Si5553   Si       0.89685    0.80341    0.14929    1.000
    N5554    N        0.95761    0.78780    0.21297    1.000
    N5555    N        0.93785    0.82047    0.14723    1.000
    N5556    N        0.77011    0.83381    0.07603    1.000
    Si5557   Si       0.79678    0.83199    0.11164    1.000
    Si5558   Si       0.78053    0.81160    0.32702    1.000
    Si5559   Si       0.83120    0.79538    0.28808    1.000
    N5560    N        0.80635    0.77467    0.32653    1.000
    N5561    N        0.74392    0.81590    0.30478    1.000
    Si5562   Si       0.84444    0.78134    0.35103    1.000
    N5563    N        0.85847    0.80938    0.25576    1.000
    N5564    N        0.86409    0.80493    0.31761    1.000
    Si5565   Si       0.74001    0.78422    0.38463    1.000
    N5566    N        0.92743    0.82449    0.26779    1.000
    Si5567   Si       0.96622    0.80653    0.25305    1.000
    Si5568   Si       0.95262    0.82056    0.32853    1.000
    Si5569   Si       0.89750    0.79734    0.28818    1.000
    N5570    N        0.92771    0.78803    0.31987    1.000
    N5571    N        0.96504    0.81403    0.36984    1.000
    N5572    N        0.98928    0.82447    0.30448    1.000
    N5573    N        0.77173    0.81059    0.37073    1.000
    N5574    N        0.83573    0.78390    0.45682    1.000
    Si5575   Si       0.80894    0.81099    0.39322    1.000
    N5576    N        0.77555    0.78605    0.49041    1.000
    Si5577   Si       0.84482    0.82674    0.45420    1.000
    N5578    N        0.82585    0.77023    0.38961    1.000
    N5579    N        0.94387    0.79949    0.43407    1.000
    Si5580   Si       0.92155    0.80809    0.47029    1.000
    N5581    N        0.89903    0.77325    0.48540    1.000
    Si5582   Si       0.95283    0.83255    0.40763    1.000
    Si5583   Si       0.82272    0.80633    0.56428    1.000
    N5584    N        0.78008    0.80210    0.55696    1.000
    Si5585   Si       0.75991    0.81290    0.51977    1.000
    N5586    N        0.83259    0.79128    0.60231    1.000
    N5587    N        0.84243    0.78515    0.53073    1.000
    Si5588   Si       0.75016    0.78899    0.58715    1.000
    N5589    N        0.94172    0.81816    0.56988    1.000
    Si5590   Si       0.88656    0.78205    0.52702    1.000
    Si5591   Si       0.95632    0.77919    0.55688    1.000
    N5592    N        0.89395    0.82630    0.52519    1.000
    Si5593   Si       0.92401    0.82842    0.61041    1.000
    N5594    N        0.89956    0.79142    0.61943    1.000
    N5595    N        0.95331    0.81897    0.49798    1.000
    N5596    N        0.82046    0.78773    0.72753    1.000
    Si5597   Si       0.75704    0.79282    0.66433    1.000
    N5598    N        0.77221    0.78043    0.62575    1.000
    N5599    N        0.85714    0.81459    0.67395    1.000
    Si5600   Si       0.86022    0.79048    0.63656    1.000
    N5601    N        0.95563    0.82737    0.64054    1.000
    Si5602   Si       0.86025    0.79057    0.71025    1.000
    N5603    N        0.88757    0.81374    0.73624    1.000
    Si5604   Si       0.96228    0.79518    0.67055    1.000
    N5605    N        0.95525    0.81330    0.71114    1.000
    Si5606   Si       0.81543    0.82322    0.82319    1.000
    N5607    N        0.76777    0.82515    0.76325    1.000
    N5608    N        0.79184    0.78828    0.82096    1.000
    N5609    N        0.83336    0.82632    0.78259    1.000
    N5610    N        0.84984    0.81408    0.85049    1.000
    Si5611   Si       0.80935    0.82539    0.74845    1.000
    Si5612   Si       0.87270    0.80847    0.77640    1.000
    N5613    N        0.91788    0.78974    0.84503    1.000
    Si5614   Si       0.95592    0.79839    0.83032    1.000
    N5615    N        0.96305    0.79178    0.78688    1.000
    Si5616   Si       0.89085    0.82446    0.84243    1.000
    N5617    N        0.98316    0.78023    0.86000    1.000
    Si5618   Si       0.97903    0.80441    0.74732    1.000
    N5619    N        0.82882    0.81919    0.98526    1.000
    N5620    N        0.81150    0.80132    0.90182    1.000
    Si5621   Si       0.97743    0.78317    0.95260    1.000
    Si5622   Si       0.91031    0.80056    0.93799    1.000
    N5623    N        0.89973    0.78844    0.97831    1.000
    N5624    N        0.87437    0.82191    0.92922    1.000
    N5625    N        0.95121    0.81573    0.93912    1.000
    N5626    N        0.89846    0.83458    0.80121    1.000
    Si5627   Si       0.85064    0.82977    0.89183    1.000
    N5628    N        0.79328    0.88195    0.00351    1.000
    Si5629   Si       0.85900    0.88442    0.11226    1.000
    N5630    N        0.74895    0.88122    0.11738    1.000
    Si5631   Si       0.88142    0.86898    0.17749    1.000
    N5632    N        0.89593    0.87694    0.13618    1.000
    N5633    N        0.86729    0.86773    0.07260    1.000
    N5634    N        0.90977    0.87475    0.01463    1.000
    N5635    N        0.93792    0.85478    0.07257    1.000
    Si5636   Si       0.92292    0.83967    0.03565    1.000
    Si5637   Si       0.97984    0.86978    0.07213    1.000
    Si5638   Si       0.92788    0.84939    0.11535    1.000
    N5639    N        0.81952    0.86781    0.12218    1.000
    Si5640   Si       0.78747    0.84442    0.20945    1.000
    N5641    N        0.77227    0.87498    0.18090    1.000
    N5642    N        0.80703    0.87100    0.24021    1.000
    N5643    N        0.95843    0.88023    0.12819    1.000
    Si5644   Si       0.79558    0.87238    0.28172    1.000
    N5645    N        0.75422    0.87737    0.27596    1.000
    Si5646   Si       0.85023    0.84798    0.32805    1.000
    N5647    N        0.80925    0.83635    0.30374    1.000
    N5648    N        0.85667    0.88712    0.35289    1.000
    Si5649   Si       0.73895    0.83744    0.26628    1.000
    N5650    N        0.87509    0.86853    0.29530    1.000
    Si5651   Si       0.91631    0.86356    0.28617    1.000
    N5652    N        0.93323    0.86318    0.32654    1.000
    Si5653   Si       0.93074    0.88834    0.36246    1.000
    Si5654   Si       0.83782    0.86852    0.39162    1.000
    Si5655   Si       0.78410    0.87447    0.42597    1.000
    N5656    N        0.81223    0.83951    0.42517    1.000
    N5657    N        0.83441    0.84583    0.49046    1.000
    N5658    N        0.86181    0.88534    0.42411    1.000
    N5659    N        0.92240    0.86022    0.39533    1.000
    Si5660   Si       0.80102    0.87216    0.49388    1.000
    Si5661   Si       0.90048    0.86735    0.43228    1.000
    N5662    N        0.88887    0.82990    0.45044    1.000
    N5663    N        0.83829    0.83164    0.36839    1.000
    N5664    N        0.76230    0.85189    0.49734    1.000
    N5665    N        0.83998    0.84575    0.56286    1.000
    Si5666   Si       0.86027    0.85209    0.52391    1.000
    N5667    N        0.76592    0.83396    0.67872    1.000
    Si5668   Si       0.86598    0.87523    0.58053    1.000
    N5669    N        0.96789    0.87768    0.59221    1.000
    N5670    N        0.90122    0.86316    0.60202    1.000
    N5671    N        0.94187    0.88106    0.53357    1.000
    Si5672   Si       0.93414    0.83928    0.53288    1.000
    Si5673   Si       0.98126    0.88568    0.54977    1.000
    Si5674   Si       0.85416    0.85624    0.68862    1.000
    N5675    N        0.82672    0.87777    0.66118    1.000
    Si5676   Si       0.78395    0.87308    0.67040    1.000
    N5677    N        0.82483    0.85858    0.72201    1.000
    N5678    N        0.75790    0.89320    0.63998    1.000
    N5679    N        0.89686    0.86398    0.69644    1.000
    Si5680   Si       0.92098    0.83835    0.72297    1.000
    Si5681   Si       0.98410    0.85237    0.62390    1.000
    N5682    N        0.79755    0.86192    0.83507    1.000
    Si5683   Si       0.74751    0.86308    0.76641    1.000
    Si5684   Si       0.76408    0.87796    0.86098    1.000
    N5685    N        0.78489    0.88895    0.76786    1.000
    Si5686   Si       0.93525    0.85954    0.79939    1.000
    N5687    N        0.94132    0.86348    0.75530    1.000
    N5688    N        0.96330    0.84069    0.82915    1.000
    N5689    N        0.95937    0.87776    0.89127    1.000
    N5690    N        0.89199    0.85664    0.87092    1.000
    Si5691   Si       0.98765    0.85734    0.86071    1.000
    Si5692   Si       0.84475    0.84417    0.95181    1.000
    N5693    N        0.82770    0.86275    0.91376    1.000
    N5694    N        0.77275    0.84417    0.95224    1.000
    N5695    N        0.85806    0.87787    0.97181    1.000
    N5696    N        0.76078    0.83837    0.88320    1.000
    Si5697   Si       0.78974    0.83862    0.99076    1.000
    Si5698   Si       0.79145    0.83624    0.91375    1.000
    N5699    N        0.96935    0.88339    0.95199    1.000
    Si5700   Si       0.97295    0.84967    0.92473    1.000
    Si5701   Si       0.76674    0.92106    0.10679    1.000
    N5702    N        0.79482    0.93614    0.07463    1.000
    N5703    N        0.75097    0.93800    0.01401    1.000
    N5704    N        0.85797    0.92624    0.10610    1.000
    Si5705   Si       0.75130    0.89457    0.01627    1.000
    N5706    N        0.86288    0.91900    0.01833    1.000
    N5707    N        0.91019    0.92838    0.06678    1.000
    Si5708   Si       0.88742    0.89677    0.04643    1.000
    Si5709   Si       0.89639    0.94724    0.10434    1.000
    N5710    N        0.84208    0.89063    0.17945    1.000
    N5711    N        0.78955    0.93038    0.14391    1.000
    Si5712   Si       0.82951    0.90506    0.21905    1.000
    N5713    N        0.80734    0.94132    0.21824    1.000
    Si5714   Si       0.80521    0.89088    0.15793    1.000
    N5715    N        0.91368    0.89956    0.19131    1.000
    N5716    N        0.98069    0.94952    0.17867    1.000
    N5717    N        0.92505    0.94409    0.13637    1.000
    Si5718   Si       0.90563    0.91723    0.23034    1.000
    Si5719   Si       0.92936    0.90487    0.14992    1.000
    N5720    N        0.81456    0.90909    0.29812    1.000
    Si5721   Si       0.85457    0.90623    0.28321    1.000
    Si5722   Si       0.80738    0.94560    0.32368    1.000
    N5723    N        0.75296    0.94557    0.26619    1.000
    Si5724   Si       0.93779    0.92978    0.46673    1.000
    N5725    N        0.87260    0.94090    0.30382    1.000
    Si5726   Si       0.87182    0.92701    0.34685    1.000
    Si5727   Si       0.96537    0.91970    0.27436    1.000
    Si5728   Si       0.98106    0.94299    0.34589    1.000
    N5729    N        0.92938    0.89781    0.26222    1.000
    N5730    N        0.97152    0.90477    0.36680    1.000
    N5731    N        0.95759    0.94293    0.30980    1.000
    N5732    N        0.90790    0.92464    0.36690    1.000
    Si5733   Si       0.74472    0.94423    0.37580    1.000
    N5734    N        0.80418    0.89544    0.45762    1.000
    Si5735   Si       0.84208    0.91524    0.44992    1.000
    N5736    N        0.84958    0.93359    0.48823    1.000
    Si5737   Si       0.80971    0.93859    0.39331    1.000
    N5738    N        0.80204    0.89597    0.39277    1.000
    N5739    N        0.83963    0.94858    0.42403    1.000
    N5740    N        0.98259    0.93730    0.46844    1.000
    N5741    N        0.92349    0.88994    0.45950    1.000
    N5742    N        0.86405    0.91070    0.24241    1.000
    Si5743   Si       0.84062    0.92321    0.52792    1.000
    N5744    N        0.78311    0.92892    0.58739    1.000
    N5745    N        0.85109    0.90642    0.60310    1.000
    Si5746   Si       0.76669    0.91065    0.55165    1.000
    Si5747   Si       0.82500    0.94108    0.59274    1.000
    N5748    N        0.80192    0.90117    0.52953    1.000
    N5749    N        0.93168    0.90708    0.64818    1.000
    N5750    N        0.92184    0.92854    0.57711    1.000
    Si5751   Si       0.91262    0.91335    0.53748    1.000
    Si5752   Si       0.92988    0.89785    0.60626    1.000
    N5753    N        0.92036    0.94109    0.50615    1.000
    N5754    N        0.87445    0.89303    0.53936    1.000
    Si5755   Si       0.96018    0.89912    0.74110    1.000
    Si5756   Si       0.75894    0.93193    0.62358    1.000
    Si5757   Si       0.84441    0.91567    0.64717    1.000
    N5758    N        0.78155    0.90574    0.70035    1.000
    Si5759   Si       0.75866    0.94213    0.69865    1.000
    N5760    N        0.83980    0.92612    0.74200    1.000
    Si5761   Si       0.80767    0.89792    0.73343    1.000
    Si5762   Si       0.90680    0.90408    0.68371    1.000
    N5763    N        0.86996    0.92585    0.68089    1.000
    Si5764   Si       0.95725    0.94256    0.65551    1.000
    N5765    N        0.93144    0.92146    0.71442    1.000
    N5766    N        0.82685    0.92757    0.81237    1.000
    N5767    N        0.75908    0.91111    0.82848    1.000
    Si5768   Si       0.79623    0.89847    0.81019    1.000
    Si5769   Si       0.85046    0.94475    0.77945    1.000
    Si5770   Si       0.93309    0.93290    0.80494    1.000
    N5771    N        0.96605    0.92830    0.77474    1.000
    N5772    N        0.93058    0.89324    0.82531    1.000
    N5773    N        0.89371    0.94548    0.79003    1.000
    Si5774   Si       0.92205    0.88781    0.86851    1.000
    N5775    N        0.81629    0.92176    0.94965    1.000
    Si5776   Si       0.82041    0.90577    0.90930    1.000
    N5777    N        0.84743    0.93155    0.88758    1.000
    N5778    N        0.78204    0.90370    0.89265    1.000
    Si5779   Si       0.75265    0.93147    0.90960    1.000
    Si5780   Si       0.82747    0.90665    0.99116    1.000
    N5781    N        0.92971    0.93593    0.00026    1.000
    N5782    N        0.89372    0.92940    0.94931    1.000
    N5783    N        0.98460    0.93680    0.87799    1.000
    Si5784   Si       0.97835    0.91061    0.91434    1.000
    N5785    N        0.91622    0.93022    0.88300    1.000
    Si5786   Si       0.88405    0.94350    0.90752    1.000
    N5787    N        0.96527    0.94517    0.94115    1.000
    Si5788   Si       0.89306    0.90233    0.98517    1.000
    Si5789   Si       0.96414    0.91980    0.97650    1.000
    Si5790   Si       0.83208    0.94833    0.84894    1.000
    N5791    N        0.84361    0.97731    0.05483    1.000
    N5792    N        0.78176    0.99576    0.04394    1.000
    Si5793   Si       0.85382    0.96176    0.01615    1.000
    Si5794   Si       0.78467    0.95436    0.03555    1.000
    Si5795   Si       0.82871    0.95554    0.08996    1.000
    N5796    N        0.81296    0.95307    0.00067    1.000
    N5797    N        0.91187    0.99276    0.03596    1.000
    N5798    N        0.88753    0.99115    0.10508    1.000
    N5799    N        0.96863    0.96559    0.05430    1.000
    Si5800   Si       0.93092    0.95505    0.04032    1.000
    N5801    N        0.82697    0.98384    0.12176    1.000
    N5802    N        0.79767    0.99603    0.18404    1.000
    Si5803   Si       0.77068    0.96376    0.22739    1.000
    N5804    N        0.75772    0.98799    0.13132    1.000
    Si5805   Si       0.79436    0.97372    0.14738    1.000
    Si5806   Si       0.83114    0.97953    0.20659    1.000
    N5807    N        0.77225    0.00792    0.24401    1.000
    Si5808   Si       0.86058    0.00393    0.13875    1.000
    N5809    N        0.86623    0.99018    0.18141    1.000
    Si5810   Si       0.97011    0.97724    0.21305    1.000
    Si5811   Si       0.89702    0.99180    0.20926    1.000
    Si5812   Si       0.95047    0.97510    0.15380    1.000
    N5813    N        0.90358    0.96023    0.23727    1.000
    N5814    N        0.93838    0.99704    0.19036    1.000
    N5815    N        0.97082    0.00792    0.13130    1.000
    N5816    N        0.79834    0.98127    0.29948    1.000
    Si5817   Si       0.75685    0.96974    0.30145    1.000
    Si5818   Si       0.84878    0.99422    0.36411    1.000
    N5819    N        0.83306    0.95204    0.35678    1.000
    N5820    N        0.84445    0.98998    0.24822    1.000
    Si5821   Si       0.80981    0.00789    0.26903    1.000
    Si5822   Si       0.96665    0.98139    0.28794    1.000
    Si5823   Si       0.87826    0.97239    0.27132    1.000
    N5824    N        0.90619    0.00062    0.28955    1.000
    N5825    N        0.97541    0.95724    0.25107    1.000
    Si5826   Si       0.83939    0.99053    0.43609    1.000
    N5827    N        0.80153    0.99066    0.46160    1.000
    Si5828   Si       0.76472    0.97825    0.44348    1.000
    N5829    N        0.77128    0.95315    0.40922    1.000
    N5830    N        0.92421    0.95680    0.43520    1.000
    N5831    N        0.87517    0.00559    0.45653    1.000
    Si5832   Si       0.92171    0.95961    0.39184    1.000
    N5833    N        0.95025    0.99760    0.48271    1.000
    Si5834   Si       0.91884    0.99719    0.45187    1.000
    N5835    N        0.95854    0.97153    0.37209    1.000
    N5836    N        0.88999    0.98647    0.38035    1.000
    Si5837   Si       0.99133    0.98012    0.47506    1.000
    N5838    N        0.76580    0.94696    0.33921    1.000
    Si5839   Si       0.85110    0.99644    0.54488    1.000
    N5840    N        0.83751    0.95708    0.55538    1.000
    N5841    N        0.77176    0.00094    0.52833    1.000
    N5842    N        0.74439    0.00628    0.59380    1.000
    Si5843   Si       0.93942    0.96586    0.58833    1.000
    N5844    N        0.95709    0.98607    0.55300    1.000
    Si5845   Si       0.92999    0.98296    0.51998    1.000
    N5846    N        0.89560    0.99624    0.54098    1.000
    N5847    N        0.91860    0.00253    0.60821    1.000
    Si5848   Si       0.80093    0.98843    0.73974    1.000
    Si5849   Si       0.80287    0.97934    0.65911    1.000
    N5850    N        0.81833    0.97664    0.70089    1.000
    N5851    N        0.76712    0.95968    0.73769    1.000
    N5852    N        0.76578    0.95924    0.65718    1.000
    Si5853   Si       0.85493    0.95349    0.71181    1.000
    N5854    N        0.82790    0.95468    0.63419    1.000
    N5855    N        0.96866    0.97918    0.73363    1.000
    Si5856   Si       0.93123    0.96682    0.71497    1.000
    N5857    N        0.89065    0.97953    0.72182    1.000
    N5858    N        0.93496    0.97422    0.67168    1.000
    N5859    N        0.97220    0.95045    0.61463    1.000
    N5860    N        0.83431    0.98514    0.76856    1.000
    N5861    N        0.79229    0.96723    0.85279    1.000
    N5862    N        0.86084    0.97997    0.83751    1.000
    Si5863   Si       0.75476    0.95186    0.84106    1.000
    N5864    N        0.74120    0.97080    0.80466    1.000
    Si5865   Si       0.99189    0.96400    0.76739    1.000
    Si5866   Si       0.89928    0.98308    0.81625    1.000
    N5867    N        0.93845    0.96851    0.83018    1.000
    N5868    N        0.81521    0.99598    0.94163    1.000
    Si5869   Si       0.80098    0.96019    0.96002    1.000
    N5870    N        0.75795    0.95789    0.94785    1.000
    Si5871   Si       0.85799    0.00380    0.94832    1.000
    N5872    N        0.88478    0.98787    0.91694    1.000
    Si5873   Si       0.94946    0.95969    0.87055    1.000
    Si5874   Si       0.96745    0.98895    0.94081    1.000
    N5875    N        0.95453    0.99595    0.89680    1.000
    Si5876   Si       0.90902    0.96489    0.97240    1.000
    N5877    N        0.93403    0.99826    0.96672    1.000
    N5878    N        0.87228    0.98365    0.98367    1.000
    Si5879   Si       0.79188    0.00904    0.85786    1.000
