# CIF file generated by openbabel 3.1.1, see https://openbabel.org
data_I
_chemical_name_common '3.01-28.aims'
_cell_length_a 39.9446
_cell_length_b 39.9446
_cell_length_c 39.9446
_cell_angle_alpha 90
_cell_angle_beta 90
_cell_angle_gamma 90
loop_
    _atom_site_label
    _atom_site_type_symbol
    _atom_site_fract_x
    _atom_site_fract_y
    _atom_site_fract_z
    _atom_site_occupancy
    N0       N        0.02844    0.08063    0.03383    1.000
    Si1      Si       0.02895    0.03172    0.09773    1.000
    Si2      Si       0.03916    0.12155    0.03167    1.000
    N3       N        0.03904    0.12689    0.11435    1.000
    N4       N        0.99193    0.05360    0.08743    1.000
    Si5      Si       0.00495    0.15002    0.09697    1.000
    N6       N        0.01092    0.14714    0.05531    1.000
    Si7      Si       0.04130    0.22750    0.02144    1.000
    N8       N        0.00137    0.20958    0.01312    1.000
    Si9      Si       0.99745    0.16662    0.01719    1.000
    N10      N        0.03096    0.14765    0.99514    1.000
    N11      N        0.99739    0.11073    0.20917    1.000
    Si12     Si       0.03256    0.09196    0.13986    1.000
    Si13     Si       0.03964    0.12515    0.20304    1.000
    N14      N        0.00609    0.04054    0.18465    1.000
    Si15     Si       0.03729    0.01942    0.20959    1.000
    N16      N        0.98984    0.08822    0.14552    1.000
    Si17     Si       0.04643    0.19808    0.19722    1.000
    N18      N        0.00816    0.25205    0.14769    1.000
    N19      N        0.00417    0.20943    0.19402    1.000
    N20      N        0.01470    0.18514    0.12275    1.000
    Si21     Si       0.99490    0.21183    0.15122    1.000
    N22      N        0.00907    0.06709    0.27417    1.000
    Si23     Si       0.01629    0.02395    0.27647    1.000
    Si24     Si       0.03488    0.10211    0.27862    1.000
    N25      N        0.01923    0.13381    0.30425    1.000
    N26      N        0.98561    0.00943    0.30570    1.000
    N27      N        0.02946    0.19594    0.30757    1.000
    N28      N        0.00117    0.23700    0.25637    1.000
    Si29     Si       0.04084    0.15907    0.33383    1.000
    N30      N        0.99788    0.24432    0.35483    1.000
    Si31     Si       0.03902    0.22151    0.27395    1.000
    Si32     Si       0.99610    0.20598    0.33578    1.000
    Si33     Si       0.99974    0.16513    0.28504    1.000
    N34      N        0.00754    0.03727    0.44071    1.000
    Si35     Si       0.00173    0.02216    0.40066    1.000
    Si36     Si       0.99782    0.12104    0.43247    1.000
    N37      N        0.04125    0.12386    0.43919    1.000
    Si38     Si       0.02832    0.01365    0.47224    1.000
    N39      N        0.03787    0.00648    0.38261    1.000
    N40      N        0.01569    0.17596    0.36675    1.000
    N41      N        0.03017    0.17051    0.49437    1.000
    Si42     Si       0.03938    0.19645    0.40046    1.000
    N43      N        0.00917    0.22304    0.41924    1.000
    N44      N        0.98693    0.16254    0.42946    1.000
    N45      N        0.02805    0.03188    0.51191    1.000
    N46      N        0.99904    0.12496    0.58603    1.000
    Si47     Si       0.00084    0.08384    0.57223    1.000
    N48      N        0.04118    0.07002    0.56983    1.000
    Si49     Si       0.03783    0.14421    0.59309    1.000
    N50      N        0.00482    0.21134    0.53845    1.000
    N51      N        0.02874    0.18452    0.61045    1.000
    Si52     Si       0.01423    0.24981    0.56159    1.000
    Si53     Si       0.00141    0.24928    0.49788    1.000
    Si54     Si       0.04627    0.20233    0.52732    1.000
    N55      N        0.04427    0.23731    0.49635    1.000
    Si56     Si       0.99035    0.20272    0.61346    1.000
    N57      N        0.04050    0.02901    0.70651    1.000
    N58      N        0.01485    0.08914    0.71979    1.000
    Si59     Si       0.03577    0.06762    0.68743    1.000
    N60      N        0.02987    0.06423    0.64330    1.000
    Si61     Si       0.99357    0.04384    0.63610    1.000
    Si62     Si       0.03225    0.23542    0.73963    1.000
    N63      N        0.01511    0.20412    0.71369    1.000
    Si64     Si       0.04695    0.17478    0.69748    1.000
    N65      N        0.02257    0.25150    0.65922    1.000
    N66      N        0.02060    0.14772    0.67479    1.000
    Si67     Si       0.99425    0.22799    0.68105    1.000
    N68      N        0.00482    0.06034    0.78525    1.000
    Si69     Si       0.01592    0.10609    0.84958    1.000
    N70      N        0.03932    0.07173    0.84444    1.000
    Si71     Si       0.04409    0.06354    0.80083    1.000
    Si72     Si       0.04047    0.11763    0.74221    1.000
    Si73     Si       0.99362    0.13976    0.80098    1.000
    N74      N        0.03104    0.13441    0.82094    1.000
    N75      N        0.00600    0.14423    0.75979    1.000
    N76      N        0.01888    0.22495    0.77979    1.000
    N77      N        0.02872    0.20011    0.84464    1.000
    Si78     Si       0.00915    0.01704    0.91630    1.000
    N79      N        0.03610    0.03345    0.98905    1.000
    N80      N        0.01179    0.06043    0.93940    1.000
    Si81     Si       0.99308    0.03882    0.97679    1.000
    N82      N        0.02010    0.12805    0.88693    1.000
    Si83     Si       0.00669    0.15789    0.91697    1.000
    N84      N        0.00676    0.35704    0.05706    1.000
    Si85     Si       0.00338    0.31190    0.07155    1.000
    N86      N        0.04100    0.27018    0.01132    1.000
    Si87     Si       0.99672    0.35922    0.01459    1.000
    N88      N        0.04327    0.31463    0.09371    1.000
    Si89     Si       0.00637    0.29051    0.99891    1.000
    Si90     Si       0.01419    0.39753    0.06835    1.000
    N91      N        0.03520    0.48588    0.05089    1.000
    N92      N        0.00667    0.40774    0.11049    1.000
    Si93     Si       0.03093    0.49076    0.00726    1.000
    Si94     Si       0.01568    0.50336    0.08673    1.000
    N95      N        0.04620    0.27202    0.21647    1.000
    Si96     Si       0.03875    0.32619    0.13524    1.000
    N97      N        0.99613    0.32237    0.14431    1.000
    Si98     Si       0.04162    0.26219    0.17271    1.000
    Si99     Si       0.01235    0.27813    0.24311    1.000
    N100     N        0.02511    0.48290    0.22236    1.000
    N101     N        0.03102    0.43200    0.17573    1.000
    Si102    Si       0.01916    0.39698    0.15063    1.000
    Si103    Si       0.00251    0.45382    0.19925    1.000
    Si104    Si       0.01445    0.34340    0.28573    1.000
    N105     N        0.02263    0.30381    0.27556    1.000
    Si106    Si       0.03531    0.32361    0.35765    1.000
    N107     N        0.02952    0.37555    0.26059    1.000
    N108     N        0.99117    0.32149    0.35601    1.000
    N109     N        0.04124    0.34439    0.32007    1.000
    N110     N        0.04201    0.43797    0.35621    1.000
    Si111    Si       0.02738    0.44433    0.31319    1.000
    Si112    Si       0.01453    0.49859    0.26074    1.000
    N113     N        0.03858    0.47994    0.29051    1.000
    N114     N        0.99276    0.42227    0.29447    1.000
    Si115    Si       0.99305    0.39664    0.25959    1.000
    Si116    Si       0.02930    0.36420    0.48067    1.000
    N117     N        0.01744    0.33471    0.44850    1.000
    N118     N        0.02937    0.28675    0.40334    1.000
    Si119    Si       0.99865    0.26483    0.42382    1.000
    N120     N        0.99234    0.27538    0.46374    1.000
    Si121    Si       0.03694    0.25885    0.37166    1.000
    Si122    Si       0.01128    0.46045    0.37639    1.000
    N123     N        0.99197    0.43511    0.40720    1.000
    N124     N        0.02197    0.48901    0.40843    1.000
    Si125    Si       0.99763    0.46560    0.43882    1.000
    N126     N        0.01209    0.45269    0.47888    1.000
    N127     N        0.98837    0.39065    0.47336    1.000
    Si128    Si       0.03294    0.48580    0.49927    1.000
    Si129    Si       0.02080    0.37141    0.54410    1.000
    N130     N        0.00961    0.33923    0.51261    1.000
    N131     N        0.02621    0.28878    0.58246    1.000
    N132     N        0.99722    0.34711    0.57448    1.000
    N133     N        0.99303    0.27653    0.52962    1.000
    N134     N        0.03961    0.39587    0.51099    1.000
    Si135    Si       0.99522    0.42000    0.50450    1.000
    N136     N        0.99184    0.40583    0.54750    1.000
    N137     N        0.99723    0.50215    0.51664    1.000
    Si138    Si       0.01774    0.28241    0.62588    1.000
    Si139    Si       0.99866    0.35841    0.71481    1.000
    N140     N        0.03440    0.33497    0.69950    1.000
    N141     N        0.02875    0.27536    0.72789    1.000
    Si142    Si       0.01353    0.39907    0.65344    1.000
    N143     N        0.02220    0.46498    0.70744    1.000
    N144     N        0.00264    0.39778    0.69842    1.000
    Si145    Si       0.04202    0.46596    0.62951    1.000
    Si146    Si       0.01481    0.42585    0.72814    1.000
    N147     N        0.00931    0.43703    0.63269    1.000
    N148     N        0.03059    0.50369    0.65202    1.000
    Si149    Si       0.00381    0.50248    0.72321    1.000
    N150     N        0.00051    0.36626    0.75882    1.000
    N151     N        0.01404    0.33999    0.86787    1.000
    Si152    Si       0.01579    0.37716    0.84453    1.000
    N153     N        0.02020    0.27205    0.85965    1.000
    Si154    Si       0.03961    0.37848    0.77201    1.000
    N155     N        0.04528    0.38307    0.81551    1.000
    N156     N        0.02932    0.47510    0.80391    1.000
    Si157    Si       0.99294    0.46862    0.78591    1.000
    N158     N        0.98988    0.43376    0.76130    1.000
    N159     N        0.99591    0.47314    0.87376    1.000
    Si160    Si       0.02776    0.30489    0.89025    1.000
    Si161    Si       0.01137    0.34498    0.94486    1.000
    N162     N        0.00055    0.31014    0.92230    1.000
    N163     N        0.01036    0.33080    0.98540    1.000
    N164     N        0.01173    0.39693    0.99749    1.000
    Si165    Si       0.02591    0.50119    0.88493    1.000
    N166     N        0.01955    0.40731    0.87710    1.000
    N167     N        0.00122    0.43541    0.93480    1.000
    N168     N        0.04290    0.48914    0.92393    1.000
    Si169    Si       0.04070    0.45142    0.94277    1.000
    Si170    Si       0.98826    0.43419    0.89354    1.000
    N171     N        0.02489    0.60388    0.06591    1.000
    N172     N        0.99911    0.56742    0.01675    1.000
    Si173    Si       0.03875    0.61283    0.10551    1.000
    N174     N        0.04582    0.51927    0.11537    1.000
    N175     N        0.00769    0.68868    0.05184    1.000
    Si176    Si       0.00889    0.65973    0.02002    1.000
    Si177    Si       0.03775    0.71929    0.05937    1.000
    N178     N        0.04183    0.71890    0.10280    1.000
    Si179    Si       0.01929    0.61429    0.16602    1.000
    Si180    Si       0.02596    0.54142    0.14816    1.000
    N181     N        0.01165    0.59730    0.20680    1.000
    Si182    Si       0.03358    0.56359    0.22247    1.000
    N183     N        0.03175    0.58289    0.13785    1.000
    N184     N        0.04291    0.53849    0.18908    1.000
    Si185    Si       0.00875    0.72007    0.19037    1.000
    N186     N        0.03909    0.70908    0.22080    1.000
    Si187    Si       0.03784    0.68513    0.12986    1.000
    N188     N        0.00468    0.69547    0.15728    1.000
    N189     N        0.01998    0.64719    0.12263    1.000
    N190     N        0.01165    0.59404    0.32589    1.000
    N191     N        0.01530    0.54364    0.25698    1.000
    Si192    Si       0.00361    0.56263    0.35666    1.000
    Si193    Si       0.00523    0.56208    0.29471    1.000
    N194     N        0.00024    0.53188    0.32604    1.000
    N195     N        0.00300    0.67104    0.34776    1.000
    N196     N        0.01386    0.70743    0.29122    1.000
    Si197    Si       0.01589    0.66921    0.30762    1.000
    Si198    Si       0.01125    0.72410    0.25227    1.000
    Si199    Si       0.01864    0.74629    0.31148    1.000
    N200     N        0.03832    0.75352    0.34931    1.000
    Si201    Si       0.02408    0.54816    0.46479    1.000
    N202     N        0.01580    0.61972    0.39962    1.000
    Si203    Si       0.01997    0.60589    0.48437    1.000
    N204     N        0.04084    0.55905    0.37966    1.000
    N205     N        0.03986    0.58376    0.45110    1.000
    N206     N        0.98898    0.63426    0.46875    1.000
    Si207    Si       0.04602    0.59103    0.40881    1.000
    Si208    Si       0.02155    0.65894    0.38343    1.000
    Si209    Si       0.03386    0.71407    0.47880    1.000
    N210     N        0.99321    0.70390    0.46538    1.000
    N211     N        0.02062    0.72635    0.40800    1.000
    N212     N        0.03319    0.75651    0.48614    1.000
    N213     N        0.00900    0.54225    0.57492    1.000
    N214     N        0.02262    0.56639    0.50885    1.000
    Si215    Si       0.99794    0.54255    0.53414    1.000
    N216     N        0.98723    0.60907    0.58858    1.000
    Si217    Si       0.02330    0.63211    0.60103    1.000
    Si218    Si       0.03513    0.69153    0.55536    1.000
    N219     N        0.99830    0.70839    0.56935    1.000
    N220     N        0.04134    0.64936    0.56407    1.000
    N221     N        0.04006    0.69029    0.51361    1.000
    N222     N        0.99793    0.56090    0.63779    1.000
    Si223    Si       0.02609    0.59201    0.65516    1.000
    N224     N        0.00859    0.62108    0.68316    1.000
    Si225    Si       0.99063    0.52068    0.65366    1.000
    N226     N        0.04382    0.52372    0.73501    1.000
    Si227    Si       0.04669    0.56570    0.72368    1.000
    Si228    Si       0.98732    0.61659    0.72011    1.000
    N229     N        0.01572    0.59118    0.74123    1.000
    Si230    Si       0.02660    0.65976    0.66805    1.000
    Si231    Si       0.99898    0.72324    0.71465    1.000
    N232     N        0.01255    0.66675    0.62796    1.000
    N233     N        0.00757    0.68799    0.69396    1.000
    N234     N        0.04096    0.75387    0.62876    1.000
    N235     N        0.01767    0.75910    0.69544    1.000
    N236     N        0.00834    0.62043    0.81145    1.000
    N237     N        0.04337    0.57857    0.85902    1.000
    Si238    Si       0.04393    0.61271    0.83476    1.000
    Si239    Si       0.02563    0.71091    0.82595    1.000
    Si240    Si       0.00082    0.65497    0.78177    1.000
    N241     N        0.03763    0.65437    0.75865    1.000
    N242     N        0.02321    0.72301    0.75271    1.000
    N243     N        0.99442    0.68740    0.81024    1.000
    N244     N        0.02171    0.75315    0.81292    1.000
    N245     N        0.02607    0.71676    0.86756    1.000
    Si246    Si       0.00391    0.57161    0.87536    1.000
    Si247    Si       0.01578    0.62108    0.94107    1.000
    N248     N        0.00137    0.53461    0.89722    1.000
    N249     N        0.00092    0.60338    0.90240    1.000
    N250     N        0.04145    0.59147    0.95971    1.000
    N251     N        0.04962    0.52509    0.98321    1.000
    Si252    Si       0.03775    0.56610    0.99664    1.000
    N253     N        0.98736    0.74214    0.99199    1.000
    N254     N        0.03673    0.65680    0.92560    1.000
    N255     N        0.99177    0.67806    0.98377    1.000
    N256     N        0.01807    0.72262    0.93543    1.000
    Si257    Si       0.00989    0.74371    0.89823    1.000
    N258     N        0.00500    0.79435    0.10279    1.000
    Si259    Si       0.01363    0.84921    0.01832    1.000
    Si260    Si       0.03740    0.79268    0.07163    1.000
    Si261    Si       0.01844    0.86725    0.07692    1.000
    N262     N        0.03579    0.83243    0.05451    1.000
    Si263    Si       0.01929    0.76846    0.00424    1.000
    N264     N        0.99912    0.80761    0.00268    1.000
    N265     N        0.00648    0.86293    0.11753    1.000
    N266     N        0.02727    0.75947    0.04663    1.000
    Si267    Si       0.03309    0.92753    0.04560    1.000
    N268     N        0.00978    0.95175    0.07483    1.000
    Si269    Si       0.03243    0.96285    0.11016    1.000
    N270     N        0.00986    0.92737    0.00956    1.000
    N271     N        0.04941    0.89106    0.05840    1.000
    Si272    Si       0.01865    0.82247    0.13399    1.000
    N273     N        0.01456    0.76166    0.18228    1.000
    N274     N        0.03489    0.88280    0.18463    1.000
    Si275    Si       0.04559    0.94765    0.21372    1.000
    Si276    Si       0.99647    0.89250    0.20291    1.000
    N277     N        0.00932    0.00095    0.23896    1.000
    Si278    Si       0.03140    0.89030    0.14102    1.000
    N279     N        0.01376    0.00156    0.12361    1.000
    N280     N        0.01865    0.93150    0.13714    1.000
    N281     N        0.00487    0.93734    0.21080    1.000
    Si282    Si       0.00634    0.79706    0.27413    1.000
    N283     N        0.02256    0.83267    0.29295    1.000
    Si284    Si       0.01921    0.86336    0.32378    1.000
    Si285    Si       0.03422    0.86499    0.26375    1.000
    N286     N        0.02595    0.84988    0.36389    1.000
    N287     N        0.03409    0.76201    0.26879    1.000
    N288     N        0.99944    0.88065    0.24523    1.000
    N289     N        0.04320    0.89159    0.29827    1.000
    N290     N        0.99783    0.95679    0.35206    1.000
    N291     N        0.99703    0.94159    0.28291    1.000
    Si292    Si       0.03831    0.96635    0.36233    1.000
    Si293    Si       0.04099    0.93550    0.29292    1.000
    Si294    Si       0.00965    0.79541    0.48618    1.000
    N295     N        0.03705    0.82493    0.46624    1.000
    N296     N        0.02110    0.79871    0.40662    1.000
    Si297    Si       0.99672    0.83058    0.38848    1.000
    Si298    Si       0.01475    0.76269    0.38298    1.000
    Si299    Si       0.99703    0.89379    0.43688    1.000
    N300     N        0.00161    0.90468    0.47817    1.000
    Si301    Si       0.02930    0.93837    0.48593    1.000
    N302     N        0.03809    0.88678    0.42056    1.000
    N303     N        0.00702    0.97437    0.47227    1.000
    N304     N        0.02042    0.83597    0.59396    1.000
    Si305    Si       0.01454    0.84636    0.55143    1.000
    N306     N        0.00289    0.81251    0.52807    1.000
    Si307    Si       0.02053    0.79029    0.60628    1.000
    N308     N        0.03006    0.94579    0.52894    1.000
    Si309    Si       0.01150    0.96157    0.61610    1.000
    Si310    Si       0.99284    0.95872    0.54378    1.000
    N311     N        0.04456    0.97734    0.59040    1.000
    N312     N        0.99134    0.94043    0.58352    1.000
    Si313    Si       0.98893    0.87345    0.69514    1.000
    Si314    Si       0.99330    0.79487    0.68497    1.000
    Si315    Si       0.01344    0.84876    0.63374    1.000
    N316     N        0.00302    0.83174    0.70580    1.000
    N317     N        0.00881    0.80723    0.64555    1.000
    Si318    Si       0.03407    0.83008    0.73618    1.000
    Si319    Si       0.00885    0.00472    0.71999    1.000
    N320     N        0.01949    0.90570    0.70768    1.000
    N321     N        0.03102    0.93553    0.64362    1.000
    N322     N        0.99978    0.97514    0.69038    1.000
    Si323    Si       0.03248    0.94394    0.68650    1.000
    Si324    Si       0.02328    0.78161    0.84518    1.000
    N325     N        0.01915    0.86183    0.76131    1.000
    N326     N        0.99564    0.87060    0.82556    1.000
    Si327    Si       0.01597    0.76115    0.76970    1.000
    N328     N        0.04357    0.79418    0.76059    1.000
    Si329    Si       0.99365    0.88338    0.78588    1.000
    Si330    Si       0.01761    0.88811    0.85944    1.000
    Si331    Si       0.99958    0.96029    0.78469    1.000
    N332     N        0.01266    0.96269    0.82692    1.000
    N333     N        0.01957    0.98828    0.75830    1.000
    N334     N        0.01434    0.92119    0.77523    1.000
    Si335    Si       0.99459    0.95859    0.86521    1.000
    Si336    Si       0.03773    0.89781    0.74655    1.000
    N337     N        0.03507    0.85165    0.87620    1.000
    N338     N        0.00204    0.86938    0.97927    1.000
    N339     N        0.03409    0.77957    0.88749    1.000
    Si340    Si       0.02245    0.82027    0.90378    1.000
    Si341    Si       0.04468    0.87199    0.96010    1.000
    N342     N        0.03832    0.82774    0.94377    1.000
    Si343    Si       0.99197    0.83006    0.96106    1.000
    Si344    Si       0.00440    0.93132    0.92071    1.000
    N345     N        0.99390    0.91709    0.88016    1.000
    N346     N        0.03710    0.90716    0.93413    1.000
    N347     N        0.01504    0.97197    0.90097    1.000
    N348     N        0.09581    0.05618    0.02580    1.000
    Si349    Si       0.08083    0.12684    0.09316    1.000
    N350     N        0.07705    0.12696    0.04830    1.000
    Si351    Si       0.05262    0.04690    0.02650    1.000
    N352     N        0.05135    0.05771    0.12371    1.000
    Si353    Si       0.09526    0.05828    0.12249    1.000
    N354     N        0.05005    0.01913    0.06192    1.000
    Si355    Si       0.10458    0.21861    0.01366    1.000
    Si356    Si       0.09379    0.19841    0.07909    1.000
    N357     N        0.08466    0.16864    0.10881    1.000
    N358     N        0.06075    0.21670    0.05699    1.000
    N359     N        0.05630    0.09526    0.17744    1.000
    N360     N        0.05713    0.12124    0.24464    1.000
    N361     N        0.06879    0.04714    0.22291    1.000
    Si362    Si       0.09001    0.07178    0.19482    1.000
    Si363    Si       0.10006    0.12766    0.24256    1.000
    Si364    Si       0.05296    0.16502    0.13649    1.000
    N365     N        0.06785    0.22549    0.17392    1.000
    N366     N        0.05366    0.19715    0.24031    1.000
    N367     N        0.04856    0.15974    0.17840    1.000
    Si368    Si       0.09627    0.19890    0.24691    1.000
    N369     N        0.07077    0.08298    0.29297    1.000
    Si370    Si       0.07796    0.05103    0.26504    1.000
    N371     N        0.08689    0.02938    0.34169    1.000
    N372     N        0.05835    0.01813    0.28360    1.000
    Si373    Si       0.09934    0.06383    0.32000    1.000
    N374     N        0.08161    0.14764    0.33438    1.000
    N375     N        0.06720    0.25313    0.27873    1.000
    N376     N        0.10868    0.20205    0.28679    1.000
    Si377    Si       0.09340    0.03683    0.44998    1.000
    N378     N        0.09140    0.07918    0.45205    1.000
    N379     N        0.05889    0.07601    0.39018    1.000
    Si380    Si       0.07032    0.03576    0.38052    1.000
    Si381    Si       0.07264    0.10198    0.42078    1.000
    N382     N        0.09825    0.02228    0.41036    1.000
    Si383    Si       0.10406    0.09484    0.49116    1.000
    Si384    Si       0.10596    0.23614    0.37739    1.000
    N385     N        0.10696    0.23251    0.45281    1.000
    Si386    Si       0.05710    0.15451    0.46583    1.000
    N387     N        0.06691    0.18101    0.43047    1.000
    N388     N        0.06362    0.22713    0.37844    1.000
    Si389    Si       0.08737    0.23544    0.49147    1.000
    Si390    Si       0.06066    0.04512    0.53930    1.000
    N391     N        0.06813    0.11946    0.60990    1.000
    N392     N        0.09142    0.02374    0.56465    1.000
    N393     N        0.09544    0.06244    0.51759    1.000
    N394     N        0.08353    0.13262    0.49356    1.000
    Si395    Si       0.06687    0.20227    0.59596    1.000
    N396     N        0.09176    0.19687    0.51526    1.000
    Si397    Si       0.08853    0.15677    0.52870    1.000
    N398     N        0.09999    0.17794    0.61084    1.000
    N399     N        0.05700    0.23030    0.56316    1.000
    Si400    Si       0.10535    0.13814    0.59501    1.000
    N401     N        0.05753    0.16497    0.55820    1.000
    N402     N        0.07637    0.23782    0.62317    1.000
    Si403    Si       0.06830    0.08163    0.63215    1.000
    N404     N        0.07275    0.08877    0.67734    1.000
    N405     N        0.10495    0.06058    0.62393    1.000
    N406     N        0.10871    0.03487    0.68710    1.000
    N407     N        0.06728    0.14901    0.72567    1.000
    Si408    Si       0.10025    0.25284    0.72502    1.000
    N409     N        0.07548    0.19781    0.67747    1.000
    Si410    Si       0.06334    0.23880    0.66393    1.000
    N411     N        0.06123    0.09047    0.77016    1.000
    N412     N        0.06808    0.02719    0.79765    1.000
    N413     N        0.10016    0.04248    0.85587    1.000
    Si414    Si       0.10523    0.08795    0.76673    1.000
    Si415    Si       0.09224    0.00923    0.82959    1.000
    N416     N        0.08074    0.18219    0.80257    1.000
    Si417    Si       0.06249    0.22009    0.79045    1.000
    Si418    Si       0.05536    0.16846    0.83488    1.000
    N419     N        0.07459    0.24938    0.81951    1.000
    N420     N        0.07404    0.22712    0.74829    1.000
    Si421    Si       0.04875    0.23976    0.85443    1.000
    Si422    Si       0.06467    0.05655    0.87621    1.000
    N423     N        0.07704    0.09167    0.89834    1.000
    N424     N        0.08816    0.07074    0.96356    1.000
    N425     N        0.05334    0.02415    0.90843    1.000
    Si426    Si       0.05849    0.03839    0.95143    1.000
    N427     N        0.09115    0.00911    0.96678    1.000
    Si428    Si       0.06064    0.13212    0.89727    1.000
    N429     N        0.10002    0.15198    0.98174    1.000
    Si430    Si       0.07919    0.19128    0.90227    1.000
    Si431    Si       0.06123    0.17015    0.97188    1.000
    N432     N        0.07070    0.22991    0.88872    1.000
    N433     N        0.07786    0.15974    0.86975    1.000
    N434     N        0.06900    0.20901    0.99168    1.000
    N435     N        0.05035    0.16460    0.92816    1.000
    Si436    Si       0.08465    0.32223    0.08059    1.000
    N437     N        0.08224    0.32437    0.03841    1.000
    Si438    Si       0.08153    0.28948    0.01182    1.000
    Si439    Si       0.09767    0.35262    0.00910    1.000
    N440     N        0.10379    0.35980    0.09852    1.000
    N441     N        0.08984    0.46915    0.09280    1.000
    Si442    Si       0.06924    0.45770    0.05694    1.000
    N443     N        0.09521    0.47856    0.02520    1.000
    N444     N        0.05068    0.41870    0.05181    1.000
    Si445    Si       0.04987    0.41268    0.00799    1.000
    Si446    Si       0.09788    0.30838    0.17892    1.000
    N447     N        0.06186    0.29669    0.15840    1.000
    Si448    Si       0.09411    0.37348    0.13880    1.000
    Si449    Si       0.08489    0.27097    0.23768    1.000
    N450     N        0.09965    0.31002    0.22281    1.000
    N451     N        0.05129    0.36571    0.14679    1.000
    N452     N        0.09715    0.41123    0.15987    1.000
    Si453    Si       0.06126    0.50493    0.20833    1.000
    Si454    Si       0.07316    0.43262    0.19052    1.000
    N455     N        0.08584    0.47623    0.18551    1.000
    N456     N        0.08025    0.41969    0.23186    1.000
    Si457    Si       0.08334    0.34932    0.31047    1.000
    Si458    Si       0.05716    0.29211    0.30048    1.000
    N459     N        0.09561    0.31055    0.29961    1.000
    N460     N        0.10032    0.36858    0.27431    1.000
    N461     N        0.05069    0.28568    0.34223    1.000
    N462     N        0.09803    0.37834    0.33863    1.000
    N463     N        0.06344    0.42030    0.30054    1.000
    Si464    Si       0.07841    0.42058    0.34117    1.000
    Si465    Si       0.06670    0.39572    0.26544    1.000
    Si466    Si       0.07656    0.50113    0.28729    1.000
    N467     N        0.07155    0.35896    0.46785    1.000
    N468     N        0.06381    0.33893    0.38808    1.000
    N469     N        0.08221    0.29742    0.44911    1.000
    Si470    Si       0.09738    0.36493    0.37999    1.000
    Si471    Si       0.05006    0.31909    0.42527    1.000
    Si472    Si       0.10588    0.32799    0.47284    1.000
    N473     N        0.09508    0.42431    0.47540    1.000
    Si474    Si       0.09984    0.38887    0.45016    1.000
    N475     N        0.08204    0.46819    0.42590    1.000
    N476     N        0.09164    0.39676    0.40890    1.000
    Si477    Si       0.06295    0.50419    0.40799    1.000
    N478     N        0.05859    0.35512    0.56376    1.000
    N479     N        0.09183    0.29396    0.57236    1.000
    Si480    Si       0.05895    0.31870    0.58800    1.000
    Si481    Si       0.09833    0.36221    0.54785    1.000
    Si482    Si       0.10189    0.26010    0.59876    1.000
    Si483    Si       0.07379    0.42339    0.51136    1.000
    Si484    Si       0.07815    0.48289    0.55713    1.000
    N485     N        0.06144    0.46219    0.52282    1.000
    N486     N        0.05151    0.48226    0.59158    1.000
    N487     N        0.10416    0.40614    0.53815    1.000
    Si488    Si       0.05557    0.31297    0.73006    1.000
    N489     N        0.09721    0.33507    0.67912    1.000
    Si490    Si       0.05843    0.34316    0.66411    1.000
    N491     N        0.09407    0.26340    0.68471    1.000
    N492     N        0.05175    0.31410    0.63260    1.000
    N493     N        0.09250    0.29293    0.74083    1.000
    N494     N        0.05440    0.38527    0.65146    1.000
    N495     N        0.08354    0.46831    0.73152    1.000
    N496     N        0.08684    0.50967    0.67906    1.000
    N497     N        0.07041    0.44829    0.66080    1.000
    Si498    Si       0.06383    0.47562    0.69309    1.000
    Si499    Si       0.09281    0.42491    0.73569    1.000
    Si500    Si       0.08940    0.40991    0.66059    1.000
    N501     N        0.09849    0.39796    0.70184    1.000
    N502     N        0.06244    0.34385    0.75856    1.000
    Si503    Si       0.10267    0.32708    0.76651    1.000
    Si504    Si       0.10796    0.27633    0.82615    1.000
    Si505    Si       0.08295    0.50690    0.75067    1.000
    Si506    Si       0.06698    0.48507    0.82272    1.000
    Si507    Si       0.07942    0.40473    0.83362    1.000
    N508     N        0.08961    0.44587    0.82220    1.000
    N509     N        0.05265    0.41267    0.74864    1.000
    N510     N        0.09517    0.31594    0.97851    1.000
    N511     N        0.06773    0.29882    0.90828    1.000
    Si512    Si       0.08222    0.32845    0.93599    1.000
    Si513    Si       0.09276    0.26536    0.90223    1.000
    N514     N        0.04974    0.35821    0.92895    1.000
    N515     N        0.08488    0.39292    0.87317    1.000
    N516     N        0.05040    0.45408    0.98592    1.000
    N517     N        0.08114    0.38640    0.99097    1.000
    Si518    Si       0.09286    0.46791    0.98376    1.000
    Si519    Si       0.10188    0.40339    0.95614    1.000
    N520     N        0.10174    0.49745    0.95169    1.000
    Si521    Si       0.05268    0.39357    0.90329    1.000
    N522     N        0.07042    0.42154    0.93038    1.000
    N523     N        0.07065    0.58220    0.02066    1.000
    Si524    Si       0.06252    0.61581    0.04769    1.000
    N525     N        0.07866    0.62093    0.08855    1.000
    Si526    Si       0.08865    0.51254    0.10532    1.000
    N527     N        0.11009    0.53585    0.07557    1.000
    N528     N        0.07668    0.70676    0.04713    1.000
    Si529    Si       0.07666    0.68044    0.01232    1.000
    Si530    Si       0.07554    0.74607    0.11685    1.000
    Si531    Si       0.10484    0.64997    0.10829    1.000
    N532     N        0.05038    0.64762    0.01882    1.000
    Si533    Si       0.07088    0.62004    0.22052    1.000
    N534     N        0.06507    0.58459    0.24201    1.000
    N535     N        0.07985    0.51265    0.24560    1.000
    N536     N        0.05631    0.63444    0.18064    1.000
    N537     N        0.10096    0.68247    0.19344    1.000
    N538     N        0.07679    0.74249    0.16125    1.000
    Si539    Si       0.07976    0.69430    0.23126    1.000
    Si540    Si       0.09905    0.64502    0.17314    1.000
    N541     N        0.08026    0.67724    0.13353    1.000
    Si542    Si       0.10569    0.70769    0.15830    1.000
    N543     N        0.09900    0.72855    0.24937    1.000
    N544     N        0.06929    0.54313    0.30446    1.000
    Si545    Si       0.07095    0.54532    0.34949    1.000
    Si546    Si       0.09169    0.56869    0.27190    1.000
    N547     N        0.10027    0.60246    0.29790    1.000
    N548     N        0.07745    0.50672    0.36662    1.000
    Si549    Si       0.08302    0.75021    0.35457    1.000
    Si550    Si       0.08903    0.64326    0.28766    1.000
    N551     N        0.05841    0.65794    0.31416    1.000
    Si552    Si       0.08050    0.67214    0.34745    1.000
    N553     N        0.09739    0.71234    0.33549    1.000
    N554     N        0.07706    0.65478    0.24845    1.000
    N555     N        0.05177    0.51540    0.47261    1.000
    N556     N        0.09565    0.53409    0.42241    1.000
    N557     N        0.09383    0.56413    0.48794    1.000
    Si558    Si       0.08231    0.60197    0.46287    1.000
    N559     N        0.08341    0.61158    0.41828    1.000
    N560     N        0.05926    0.62520    0.49147    1.000
    Si561    Si       0.09656    0.52699    0.46648    1.000
    N562     N        0.06224    0.67391    0.38873    1.000
    Si563    Si       0.06230    0.71122    0.41181    1.000
    N564     N        0.06994    0.70700    0.45438    1.000
    N565     N        0.08765    0.74332    0.39596    1.000
    Si566    Si       0.09853    0.64699    0.40064    1.000
    N567     N        0.07373    0.59363    0.54812    1.000
    Si568    Si       0.06544    0.55928    0.52123    1.000
    N569     N        0.06705    0.52424    0.54637    1.000
    N570     N        0.07508    0.54396    0.61370    1.000
    Si571    Si       0.04711    0.52584    0.58626    1.000
    Si572    Si       0.06757    0.63575    0.53300    1.000
    N573     N        0.06761    0.71289    0.57239    1.000
    Si574    Si       0.06996    0.74882    0.59486    1.000
    N575     N        0.09942    0.73804    0.50572    1.000
    Si576    Si       0.10376    0.68654    0.57578    1.000
    Si577    Si       0.06321    0.53392    0.65417    1.000
    N578     N        0.07887    0.59493    0.73578    1.000
    N579     N        0.05183    0.61711    0.63069    1.000
    N580     N        0.04979    0.56429    0.67959    1.000
    N581     N        0.10522    0.67412    0.61787    1.000
    Si582    Si       0.09009    0.69612    0.69990    1.000
    N583     N        0.08728    0.73488    0.67747    1.000
    N584     N        0.06898    0.66416    0.67713    1.000
    N585     N        0.08666    0.70554    0.74110    1.000
    Si586    Si       0.08688    0.64197    0.64378    1.000
    N587     N        0.06897    0.60034    0.80114    1.000
    N588     N        0.08996    0.51109    0.79373    1.000
    Si589    Si       0.05126    0.61347    0.76432    1.000
    N590     N        0.05721    0.51032    0.85696    1.000
    Si591    Si       0.07408    0.55004    0.86742    1.000
    Si592    Si       0.05303    0.69478    0.76437    1.000
    N593     N        0.06485    0.64595    0.85508    1.000
    N594     N        0.06217    0.69388    0.80765    1.000
    Si595    Si       0.09185    0.67124    0.82983    1.000
    N596     N        0.10109    0.75318    0.79469    1.000
    N597     N        0.07262    0.54985    0.91305    1.000
    Si598    Si       0.07783    0.58667    0.93834    1.000
    N599     N        0.09510    0.61994    0.91435    1.000
    Si600    Si       0.06593    0.51957    0.94291    1.000
    Si601    Si       0.05351    0.69619    0.93577    1.000
    N602     N        0.08795    0.75057    0.92791    1.000
    Si603    Si       0.07140    0.65116    0.89912    1.000
    N604     N        0.08972    0.69006    0.90627    1.000
    Si605    Si       0.08729    0.74672    0.97218    1.000
    N606     N        0.07450    0.70290    0.97585    1.000
    Si607    Si       0.07385    0.86127    0.03942    1.000
    N608     N        0.07457    0.78206    0.09191    1.000
    N609     N        0.05574    0.85109    0.99945    1.000
    N610     N        0.10374    0.82994    0.05074    1.000
    N611     N        0.07377    0.96751    0.09858    1.000
    N612     N        0.06961    0.95166    0.03597    1.000
    Si613    Si       0.07825    0.98835    0.05966    1.000
    Si614    Si       0.05442    0.77731    0.17972    1.000
    N615     N        0.07189    0.78819    0.21694    1.000
    Si616    Si       0.08736    0.84459    0.14997    1.000
    N617     N        0.05554    0.81499    0.15471    1.000
    N618     N        0.07053    0.86316    0.24148    1.000
    N619     N        0.07065    0.87879    0.12941    1.000
    N620     N        0.10638    0.86331    0.18270    1.000
    Si621    Si       0.07466    0.88371    0.20249    1.000
    N622     N        0.05845    0.98373    0.19525    1.000
    N623     N        0.08392    0.92601    0.20265    1.000
    Si624    Si       0.09823    0.96708    0.19256    1.000
    N625     N        0.09522    0.79304    0.27631    1.000
    Si626    Si       0.07438    0.76545    0.25367    1.000
    N627     N        0.10124    0.78875    0.34287    1.000
    N628     N        0.10583    0.85130    0.29651    1.000
    Si629    Si       0.09660    0.83279    0.25646    1.000
    N630     N        0.07929    0.88835    0.35231    1.000
    Si631    Si       0.08740    0.88693    0.30917    1.000
    N632     N        0.05575    0.96431    0.32199    1.000
    Si633    Si       0.08181    0.99807    0.31419    1.000
    N634     N        0.05589    0.94649    0.25486    1.000
    Si635    Si       0.10224    0.93217    0.24705    1.000
    Si636    Si       0.05929    0.86643    0.38460    1.000
    N637     N        0.08592    0.83525    0.40149    1.000
    N638     N        0.08485    0.78344    0.44903    1.000
    Si639    Si       0.07558    0.77091    0.48918    1.000
    Si640    Si       0.05717    0.80977    0.42897    1.000
    N641     N        0.09843    0.85876    0.47003    1.000
    Si642    Si       0.06607    0.84263    0.49378    1.000
    N643     N        0.06327    0.94482    0.38962    1.000
    N644     N        0.10267    0.89754    0.41254    1.000
    N645     N        0.07032    0.00559    0.46840    1.000
    N646     N        0.06521    0.94052    0.46385    1.000
    Si647    Si       0.06705    0.91961    0.42677    1.000
    Si648    Si       0.09565    0.97129    0.46747    1.000
    Si649    Si       0.09663    0.92103    0.37442    1.000
    N650     N        0.07938    0.80597    0.51342    1.000
    Si651    Si       0.08880    0.80541    0.55475    1.000
    N652     N        0.05868    0.78645    0.57977    1.000
    Si653    Si       0.08280    0.87994    0.55653    1.000
    N654     N        0.05009    0.86304    0.52864    1.000
    N655     N        0.10173    0.84293    0.57198    1.000
    N656     N        0.05839    0.90383    0.58437    1.000
    Si657    Si       0.08669    0.99069    0.59141    1.000
    N658     N        0.09622    0.95555    0.56671    1.000
    Si659    Si       0.05354    0.94338    0.56545    1.000
    N660     N        0.06953    0.84845    0.71917    1.000
    N661     N        0.07289    0.79804    0.67815    1.000
    Si662    Si       0.07557    0.84138    0.67818    1.000
    N663     N        0.05055    0.86490    0.65121    1.000
    Si664    Si       0.05281    0.75957    0.66902    1.000
    Si665    Si       0.10549    0.77306    0.69409    1.000
    N666     N        0.06688    0.96914    0.69054    1.000
    Si667    Si       0.09840    0.96179    0.66320    1.000
    N668     N        0.09475    0.92031    0.64742    1.000
    Si669    Si       0.05733    0.90434    0.62984    1.000
    N670     N        0.09589    0.99823    0.74373    1.000
    N671     N        0.10044    0.99163    0.63153    1.000
    Si672    Si       0.07818    0.00953    0.70559    1.000
    Si673    Si       0.07631    0.79128    0.79041    1.000
    Si674    Si       0.07272    0.83369    0.85849    1.000
    N675     N        0.05771    0.80393    0.83013    1.000
    N676     N        0.09798    0.85867    0.83518    1.000
    Si677    Si       0.10419    0.86070    0.75332    1.000
    Si678    Si       0.09350    0.89909    0.84995    1.000
    N679     N        0.07225    0.95838    0.78827    1.000
    N680     N        0.07281    0.97989    0.85387    1.000
    Si681    Si       0.06016    0.99557    0.76952    1.000
    N682     N        0.07818    0.89807    0.76105    1.000
    Si683    Si       0.10223    0.92734    0.78232    1.000
    N684     N        0.05204    0.91062    0.84640    1.000
    Si685    Si       0.05382    0.94977    0.82714    1.000
    Si686    Si       0.10387    0.84380    0.92919    1.000
    Si687    Si       0.06247    0.81407    0.97823    1.000
    N688     N        0.09013    0.81990    0.89456    1.000
    Si689    Si       0.07957    0.77757    0.89534    1.000
    N690     N        0.05679    0.77275    0.98685    1.000
    N691     N        0.09121    0.88017    0.94935    1.000
    N692     N        0.10375    0.81465    0.96268    1.000
    Si693    Si       0.08016    0.91438    0.92251    1.000
    N694     N        0.08114    0.95634    0.92050    1.000
    Si695    Si       0.05941    0.98133    0.89471    1.000
    N696     N        0.14895    0.05281    0.06167    1.000
    N697     N        0.13914    0.11592    0.03455    1.000
    Si698    Si       0.11903    0.08272    0.05436    1.000
    Si699    Si       0.15368    0.02264    0.09445    1.000
    N700     N        0.11075    0.02179    0.10611    1.000
    Si701    Si       0.14863    0.01844    0.03388    1.000
    N702     N        0.10336    0.08995    0.09527    1.000
    N703     N        0.11836    0.22764    0.09566    1.000
    N704     N        0.11327    0.18551    0.04257    1.000
    Si705    Si       0.16390    0.25097    0.01290    1.000
    Si706    Si       0.10965    0.14597    0.02357    1.000
    N707     N        0.11669    0.09719    0.21816    1.000
    Si708    Si       0.15461    0.04899    0.16631    1.000
    N709     N        0.11386    0.05980    0.16038    1.000
    Si710    Si       0.15728    0.11126    0.20726    1.000
    N711     N        0.16132    0.19993    0.23419    1.000
    N712     N        0.13203    0.20453    0.16460    1.000
    Si713    Si       0.14894    0.20821    0.12428    1.000
    N714     N        0.10641    0.16604    0.22120    1.000
    Si715    Si       0.15007    0.24133    0.24335    1.000
    N716     N        0.10828    0.23644    0.22608    1.000
    Si717    Si       0.14121    0.18234    0.20108    1.000
    Si718    Si       0.10795    0.23684    0.18115    1.000
    N719     N        0.12650    0.08934    0.34113    1.000
    N720     N        0.11908    0.04938    0.28176    1.000
    Si721    Si       0.14869    0.01921    0.29211    1.000
    Si722    Si       0.11352    0.12655    0.35788    1.000
    N723     N        0.12422    0.13695    0.27849    1.000
    N724     N        0.14153    0.15750    0.34284    1.000
    N725     N        0.12434    0.24848    0.33996    1.000
    Si726    Si       0.11436    0.16590    0.31041    1.000
    Si727    Si       0.10605    0.24259    0.30071    1.000
    N728     N        0.13252    0.02137    0.46250    1.000
    N729     N        0.10790    0.12307    0.40162    1.000
    Si730    Si       0.14536    0.13025    0.42172    1.000
    N731     N        0.16490    0.09187    0.43643    1.000
    N732     N        0.13516    0.16338    0.45110    1.000
    N733     N        0.12832    0.20284    0.39471    1.000
    Si734    Si       0.15917    0.18079    0.37528    1.000
    Si735    Si       0.10848    0.19339    0.43142    1.000
    N736     N        0.14164    0.07183    0.56487    1.000
    Si737    Si       0.14615    0.10906    0.54058    1.000
    Si738    Si       0.12434    0.03934    0.54103    1.000
    Si739    Si       0.14112    0.07731    0.60742    1.000
    N740     N        0.13611    0.12021    0.61698    1.000
    N741     N        0.14662    0.09648    0.50015    1.000
    N742     N        0.16212    0.01731    0.52831    1.000
    N743     N        0.11652    0.13621    0.55399    1.000
    N744     N        0.12983    0.23069    0.57982    1.000
    Si745    Si       0.12547    0.21592    0.53879    1.000
    N746     N        0.15538    0.18662    0.52338    1.000
    Si747    Si       0.16111    0.21927    0.60642    1.000
    N748     N        0.11668    0.25378    0.51777    1.000
    Si749    Si       0.12004    0.02553    0.64670    1.000
    N750     N        0.15281    0.08837    0.67416    1.000
    Si751    Si       0.15614    0.12754    0.65572    1.000
    Si752    Si       0.11393    0.07852    0.69278    1.000
    N753     N        0.11569    0.10383    0.72890    1.000
    N754     N        0.16326    0.02477    0.64402    1.000
    N755     N        0.12653    0.15388    0.67809    1.000
    Si756    Si       0.15865    0.20164    0.74176    1.000
    Si757    Si       0.11113    0.18852    0.65254    1.000
    Si758    Si       0.10990    0.14750    0.71839    1.000
    N759     N        0.14893    0.21332    0.64772    1.000
    N760     N        0.14010    0.24000    0.73107    1.000
    N761     N        0.13561    0.05696    0.77163    1.000
    Si762    Si       0.15112    0.11983    0.82403    1.000
    N763     N        0.14810    0.09688    0.85878    1.000
    Si764    Si       0.12757    0.01448    0.77167    1.000
    N765     N        0.11674    0.11765    0.79695    1.000
    Si766    Si       0.13742    0.05599    0.86982    1.000
    Si767    Si       0.11752    0.16074    0.79137    1.000
    N768     N        0.14992    0.16425    0.82138    1.000
    N769     N        0.12862    0.17109    0.75069    1.000
    N770     N        0.16666    0.02497    0.86988    1.000
    N771     N        0.15339    0.02737    0.99240    1.000
    N772     N        0.13435    0.05425    0.91430    1.000
    N773     N        0.12983    0.12251    0.92586    1.000
    Si774    Si       0.16277    0.11488    0.89758    1.000
    Si775    Si       0.11148    0.04168    0.98706    1.000
    Si776    Si       0.16382    0.02222    0.91429    1.000
    Si777    Si       0.10836    0.08581    0.92715    1.000
    N778     N        0.13977    0.21887    0.98939    1.000
    N779     N        0.11394    0.19212    0.92839    1.000
    Si780    Si       0.12937    0.15794    0.94868    1.000
    Si781    Si       0.13854    0.22398    0.94439    1.000
    N782     N        0.13268    0.37171    0.02611    1.000
    N783     N        0.12024    0.29963    0.09056    1.000
    Si784    Si       0.13868    0.33266    0.11496    1.000
    Si785    Si       0.12666    0.26151    0.06903    1.000
    Si786    Si       0.13112    0.37858    0.06888    1.000
    N787     N        0.10998    0.25848    0.02687    1.000
    N788     N        0.16743    0.36236    0.08871    1.000
    N789     N        0.14893    0.48249    0.06412    1.000
    Si790    Si       0.13203    0.45763    0.09586    1.000
    N791     N        0.14017    0.41733    0.08693    1.000
    Si792    Si       0.12194    0.50919    0.04408    1.000
    Si793    Si       0.14957    0.35729    0.17991    1.000
    N794     N        0.13210    0.37285    0.21699    1.000
    N795     N        0.12621    0.27569    0.17296    1.000
    N796     N        0.11652    0.34070    0.15677    1.000
    Si797    Si       0.12079    0.34180    0.24422    1.000
    N798     N        0.14539    0.43730    0.20657    1.000
    Si799    Si       0.12388    0.41232    0.23512    1.000
    Si800    Si       0.12252    0.48931    0.16562    1.000
    N801     N        0.15981    0.39039    0.15323    1.000
    Si802    Si       0.13717    0.42521    0.16459    1.000
    N803     N        0.14418    0.45933    0.13802    1.000
    N804     N        0.15745    0.49999    0.19091    1.000
    Si805    Si       0.13848    0.30408    0.29539    1.000
    N806     N        0.14897    0.31370    0.33536    1.000
    Si807    Si       0.14464    0.28102    0.36333    1.000
    N808     N        0.15675    0.33023    0.26507    1.000
    N809     N        0.13598    0.26521    0.27667    1.000
    Si810    Si       0.12816    0.39263    0.30378    1.000
    N811     N        0.13466    0.42580    0.27402    1.000
    Si812    Si       0.14207    0.46434    0.29004    1.000
    N813     N        0.15495    0.49047    0.26051    1.000
    Si814    Si       0.11268    0.48564    0.35234    1.000
    N815     N        0.10926    0.44343    0.36111    1.000
    N816     N        0.11084    0.48602    0.30879    1.000
    N817     N        0.11806    0.27299    0.39784    1.000
    N818     N        0.14334    0.29839    0.46363    1.000
    N819     N        0.13108    0.35986    0.45159    1.000
    N820     N        0.14076    0.35669    0.38527    1.000
    Si821    Si       0.11583    0.27306    0.44059    1.000
    Si822    Si       0.16332    0.35798    0.42307    1.000
    N823     N        0.14459    0.50415    0.37759    1.000
    N824     N        0.13773    0.44212    0.43038    1.000
    N825     N        0.12078    0.49450    0.48325    1.000
    Si826    Si       0.10392    0.43839    0.40235    1.000
    Si827    Si       0.10988    0.46135    0.45917    1.000
    N828     N        0.12192    0.35308    0.58363    1.000
    Si829    Si       0.14177    0.31670    0.59603    1.000
    Si830    Si       0.11774    0.29251    0.53756    1.000
    N831     N        0.15764    0.29981    0.55971    1.000
    N832     N        0.11112    0.33056    0.51778    1.000
    Si833    Si       0.14637    0.37747    0.60836    1.000
    N834     N        0.11890    0.47183    0.56974    1.000
    Si835    Si       0.13407    0.43347    0.55276    1.000
    Si836    Si       0.15160    0.49904    0.58206    1.000
    N837     N        0.15953    0.40910    0.58083    1.000
    Si838    Si       0.15702    0.49352    0.50875    1.000
    N839     N        0.16055    0.45140    0.52410    1.000
    N840     N        0.12384    0.28790    0.62569    1.000
    N841     N        0.15310    0.30169    0.68558    1.000
    Si842    Si       0.11511    0.29707    0.66671    1.000
    Si843    Si       0.12225    0.36143    0.70283    1.000
    N844     N        0.16266    0.37043    0.68659    1.000
    N845     N        0.13442    0.34714    0.74470    1.000
    N846     N        0.15480    0.44222    0.69206    1.000
    Si847    Si       0.15939    0.40856    0.66615    1.000
    N848     N        0.12550    0.40055    0.63869    1.000
    Si849    Si       0.16275    0.44146    0.73361    1.000
    Si850    Si       0.13081    0.35088    0.82193    1.000
    N851     N        0.13113    0.34748    0.86433    1.000
    N852     N        0.14834    0.26097    0.81668    1.000
    N853     N        0.12028    0.27593    0.87015    1.000
    Si854    Si       0.15909    0.26027    0.85732    1.000
    N855     N        0.10920    0.31589    0.80750    1.000
    N856     N        0.11377    0.38717    0.81129    1.000
    N857     N        0.13000    0.42457    0.75581    1.000
    Si858    Si       0.12556    0.42708    0.79959    1.000
    N859     N        0.15604    0.40937    0.86453    1.000
    N860     N        0.15866    0.48229    0.74714    1.000
    N861     N        0.15966    0.28646    0.98922    1.000
    Si862    Si       0.15904    0.35147    0.93438    1.000
    Si863    Si       0.12818    0.29281    0.96140    1.000
    N864     N        0.12895    0.32039    0.92549    1.000
    Si865    Si       0.14085    0.31271    0.88407    1.000
    N866     N        0.11506    0.26024    0.93873    1.000
    Si867    Si       0.13753    0.49694    0.92631    1.000
    N868     N        0.12903    0.38332    0.92720    1.000
    Si869    Si       0.16400    0.45121    0.97025    1.000
    Si870    Si       0.12690    0.38659    0.88441    1.000
    N871     N        0.12186    0.43781    0.97320    1.000
    N872     N        0.13108    0.49961    0.88358    1.000
    N873     N        0.13053    0.54020    0.01177    1.000
    N874     N        0.13142    0.59861    0.04297    1.000
    Si875    Si       0.14142    0.56732    0.07273    1.000
    N876     N        0.14928    0.58141    0.11256    1.000
    Si877    Si       0.11263    0.57926    0.00764    1.000
    Si878    Si       0.13760    0.64077    0.04204    1.000
    Si879    Si       0.11375    0.70751    0.07071    1.000
    N880     N        0.14170    0.72766    0.04630    1.000
    N881     N        0.12613    0.66676    0.07540    1.000
    N882     N        0.11734    0.66181    0.00993    1.000
    N883     N        0.11652    0.72771    0.11125    1.000
    Si884    Si       0.15907    0.73413    0.00819    1.000
    Si885    Si       0.16545    0.61868    0.12487    1.000
    N886     N        0.11158    0.52374    0.14171    1.000
    Si887    Si       0.14620    0.54979    0.13962    1.000
    Si888    Si       0.14216    0.58453    0.21252    1.000
    N889     N        0.16125    0.56471    0.18048    1.000
    N890     N        0.10924    0.60983    0.19875    1.000
    Si891    Si       0.14213    0.73427    0.24819    1.000
    N892     N        0.13164    0.63974    0.14069    1.000
    N893     N        0.15891    0.69719    0.23337    1.000
    N894     N        0.15047    0.71120    0.16367    1.000
    Si895    Si       0.15462    0.73846    0.13025    1.000
    Si896    Si       0.11867    0.60311    0.33811    1.000
    N897     N        0.12997    0.56256    0.24892    1.000
    N898     N        0.16136    0.60479    0.33149    1.000
    N899     N        0.10933    0.56536    0.35823    1.000
    Si900    Si       0.16040    0.53325    0.26326    1.000
    N901     N        0.12675    0.66164    0.29939    1.000
    N902     N        0.15313    0.72920    0.29202    1.000
    Si903    Si       0.13586    0.70129    0.31737    1.000
    N904     N        0.10684    0.63839    0.36022    1.000
    Si905    Si       0.16370    0.64563    0.31627    1.000
    N906     N        0.16926    0.68187    0.34350    1.000
    Si907    Si       0.13451    0.57989    0.49230    1.000
    Si908    Si       0.12584    0.54429    0.39291    1.000
    N909     N        0.12486    0.61528    0.46815    1.000
    N910     N        0.15523    0.55416    0.46609    1.000
    N911     N        0.16315    0.56777    0.39971    1.000
    Si912    Si       0.10820    0.71075    0.47346    1.000
    N913     N        0.13468    0.73426    0.44958    1.000
    N914     N        0.13550    0.66549    0.41568    1.000
    N915     N        0.13581    0.67966    0.48675    1.000
    Si916    Si       0.14958    0.64906    0.45501    1.000
    N917     N        0.14387    0.58803    0.53298    1.000
    N918     N        0.12855    0.59931    0.59908    1.000
    N919     N        0.14610    0.52868    0.61481    1.000
    Si920    Si       0.11368    0.60550    0.55971    1.000
    Si921    Si       0.11601    0.56076    0.61690    1.000
    N922     N        0.14036    0.70218    0.55640    1.000
    Si923    Si       0.14124    0.66576    0.52651    1.000
    Si924    Si       0.12883    0.74281    0.53642    1.000
    N925     N        0.10893    0.75339    0.61374    1.000
    N926     N        0.10783    0.64935    0.54808    1.000
    N927     N        0.16784    0.65985    0.61192    1.000
    N928     N        0.11652    0.56499    0.66151    1.000
    N929     N        0.14792    0.59135    0.71699    1.000
    Si930    Si       0.11978    0.53411    0.69199    1.000
    Si931    Si       0.14279    0.59762    0.67470    1.000
    N932     N        0.11037    0.53612    0.73367    1.000
    N933     N        0.16121    0.52477    0.68734    1.000
    N934     N        0.12621    0.63294    0.66045    1.000
    Si935    Si       0.11784    0.57784    0.74494    1.000
    Si936    Si       0.12370    0.73556    0.65092    1.000
    N937     N        0.15830    0.71521    0.63715    1.000
    Si938    Si       0.14121    0.67223    0.64761    1.000
    N939     N        0.13327    0.68982    0.69061    1.000
    N940     N        0.13083    0.57615    0.78506    1.000
    Si941    Si       0.12098    0.53868    0.80965    1.000
    Si942    Si       0.11053    0.59940    0.81504    1.000
    N943     N        0.15386    0.51265    0.81821    1.000
    N944     N        0.10751    0.56293    0.84242    1.000
    N945     N        0.10608    0.75313    0.86928    1.000
    N946     N        0.12001    0.64042    0.81781    1.000
    Si947    Si       0.11558    0.73168    0.75880    1.000
    Si948    Si       0.15647    0.66133    0.83640    1.000
    N949     N        0.15336    0.70832    0.75879    1.000
    Si950    Si       0.12129    0.73985    0.83122    1.000
    N951     N        0.12597    0.69754    0.83852    1.000
    N952     N        0.16162    0.74984    0.82085    1.000
    N953     N        0.11564    0.58930    0.96367    1.000
    Si954    Si       0.13506    0.61519    0.93572    1.000
    N955     N        0.15922    0.53212    0.94163    1.000
    N956     N        0.16629    0.59602    0.90977    1.000
    Si957    Si       0.16273    0.52830    0.98384    1.000
    N958     N        0.15584    0.71979    0.91709    1.000
    N959     N        0.12690    0.75427    0.98595    1.000
    Si960    Si       0.11498    0.72476    0.90364    1.000
    N961     N        0.15034    0.65216    0.94841    1.000
    Si962    Si       0.15425    0.66514    0.98939    1.000
    Si963    Si       0.13795    0.85156    0.03165    1.000
    N964     N        0.15113    0.78984    0.08647    1.000
    N965     N        0.15775    0.82125    0.00631    1.000
    Si966    Si       0.10981    0.80629    0.08559    1.000
    N967     N        0.10866    0.88427    0.01888    1.000
    N968     N        0.11688    0.98983    0.03998    1.000
    N969     N        0.15444    0.97582    0.10857    1.000
    N970     N        0.15224    0.93552    0.04396    1.000
    Si971    Si       0.11265    0.94612    0.02595    1.000
    Si972    Si       0.11180    0.97830    0.11771    1.000
    Si973    Si       0.15845    0.81066    0.12515    1.000
    N974     N        0.11795    0.82571    0.12513    1.000
    N975     N        0.13395    0.83111    0.23731    1.000
    Si976    Si       0.14092    0.86561    0.20863    1.000
    N977     N        0.16228    0.76712    0.22739    1.000
    N978     N        0.16210    0.77576    0.15140    1.000
    N979     N        0.12128    0.97102    0.15846    1.000
    Si980    Si       0.15751    0.98723    0.22451    1.000
    Si981    Si       0.16315    0.98469    0.15151    1.000
    N982     N        0.11857    0.97068    0.23124    1.000
    N983     N        0.13719    0.90189    0.23384    1.000
    N984     N        0.16192    0.01196    0.18842    1.000
    N985     N        0.14521    0.83719    0.34880    1.000
    Si986    Si       0.12199    0.81323    0.31158    1.000
    N987     N        0.15841    0.79659    0.29369    1.000
    Si988    Si       0.16422    0.80452    0.25093    1.000
    Si989    Si       0.13306    0.94520    0.31084    1.000
    N990     N        0.12725    0.93838    0.35259    1.000
    N991     N        0.12176    0.98606    0.30473    1.000
    N992     N        0.10337    0.92156    0.29008    1.000
    Si993    Si       0.11582    0.81477    0.37356    1.000
    N994     N        0.13692    0.79030    0.40086    1.000
    N995     N        0.15661    0.85029    0.42079    1.000
    Si996    Si       0.11421    0.85908    0.42928    1.000
    Si997    Si       0.11479    0.76317    0.42394    1.000
    Si998    Si       0.15828    0.93959    0.44375    1.000
    Si999    Si       0.15160    0.99465    0.49141    1.000
    N1000    N        0.12374    0.96374    0.43318    1.000
    Si1001   Si       0.13724    0.00389    0.42168    1.000
    N1002    N        0.15427    0.90708    0.47080    1.000
    Si1003   Si       0.14051    0.84469    0.59228    1.000
    N1004    N        0.12220    0.77984    0.55707    1.000
    Si1005   Si       0.13961    0.77544    0.59518    1.000
    N1006    N        0.15080    0.81164    0.61605    1.000
    Si1007   Si       0.12842    0.87947    0.49254    1.000
    N1008    N        0.14161    0.88361    0.61004    1.000
    Si1009   Si       0.12395    0.94124    0.53898    1.000
    N1010    N        0.12126    0.96584    0.50271    1.000
    N1011    N        0.11081    0.89834    0.52966    1.000
    N1012    N        0.16288    0.93712    0.56141    1.000
    N1013    N        0.11622    0.85514    0.66898    1.000
    N1014    N        0.11782    0.76865    0.73408    1.000
    N1015    N        0.13570    0.83860    0.72666    1.000
    N1016    N        0.14121    0.77191    0.66972    1.000
    Si1017   Si       0.15813    0.86242    0.69589    1.000
    Si1018   Si       0.12668    0.89250    0.64834    1.000
    N1019    N        0.15961    0.90131    0.67076    1.000
    Si1020   Si       0.13105    0.97248    0.72862    1.000
    N1021    N        0.13651    0.96662    0.68638    1.000
    Si1022   Si       0.13012    0.84630    0.80912    1.000
    N1023    N        0.13692    0.87703    0.77914    1.000
    N1024    N        0.16255    0.82361    0.82431    1.000
    Si1025   Si       0.13671    0.80322    0.74908    1.000
    N1026    N        0.10776    0.82090    0.77884    1.000
    N1027    N        0.16355    0.88542    0.85572    1.000
    Si1028   Si       0.15813    0.92301    0.83463    1.000
    N1029    N        0.11589    0.92418    0.82370    1.000
    N1030    N        0.13447    0.93769    0.75300    1.000
    N1031    N        0.13160    0.99742    0.81326    1.000
    N1032    N        0.16262    0.95637    0.86090    1.000
    Si1033   Si       0.16727    0.99420    0.83888    1.000
    Si1034   Si       0.16520    0.90592    0.76488    1.000
    N1035    N        0.16038    0.99550    0.74838    1.000
    Si1036   Si       0.13959    0.79530    0.97678    1.000
    N1037    N        0.14467    0.84837    0.91816    1.000
    N1038    N        0.14577    0.98377    0.92871    1.000
    Si1039   Si       0.14635    0.88564    0.89544    1.000
    N1040    N        0.11340    0.94207    0.98272    1.000
    Si1041   Si       0.10867    0.97226    0.95005    1.000
    N1042    N        0.16257    0.89634    0.98778    1.000
    Si1043   Si       0.12016    0.89772    0.98070    1.000
    N1044    N        0.10580    0.90199    0.88986    1.000
    N1045    N        0.20634    0.11578    0.06707    1.000
    N1046    N        0.21645    0.03834    0.01086    1.000
    Si1047   Si       0.18159    0.12799    0.03131    1.000
    Si1048   Si       0.21947    0.01790    0.04833    1.000
    Si1049   Si       0.21938    0.03908    0.12174    1.000
    N1050    N        0.20314    0.11061    0.99748    1.000
    Si1051   Si       0.20649    0.14645    0.09910    1.000
    N1052    N        0.18303    0.17051    0.02888    1.000
    Si1053   Si       0.20018    0.25115    0.08318    1.000
    N1054    N        0.18378    0.23340    0.11911    1.000
    N1055    N        0.17124    0.16858    0.11559    1.000
    Si1056   Si       0.21648    0.09826    0.16905    1.000
    N1057    N        0.21154    0.12845    0.13907    1.000
    N1058    N        0.17547    0.03440    0.12866    1.000
    N1059    N        0.17870    0.08100    0.18246    1.000
    N1060    N        0.18117    0.12079    0.24165    1.000
    Si1061   Si       0.22308    0.13216    0.23838    1.000
    N1062    N        0.16334    0.14710    0.18542    1.000
    Si1063   Si       0.18968    0.16260    0.15492    1.000
    Si1064   Si       0.21474    0.23233    0.15114    1.000
    N1065    N        0.21491    0.19349    0.16954    1.000
    N1066    N        0.22716    0.17419    0.23831    1.000
    N1067    N        0.18703    0.09850    0.30311    1.000
    N1068    N        0.16835    0.03242    0.32974    1.000
    Si1069   Si       0.18672    0.00685    0.36133    1.000
    N1070    N        0.18948    0.08646    0.37147    1.000
    Si1071   Si       0.22675    0.08353    0.28959    1.000
    Si1072   Si       0.16691    0.07586    0.33510    1.000
    Si1073   Si       0.16687    0.13129    0.28132    1.000
    N1074    N        0.17201    0.01039    0.25795    1.000
    Si1075   Si       0.21179    0.17430    0.32885    1.000
    N1076    N        0.20912    0.23497    0.26694    1.000
    Si1077   Si       0.19611    0.19423    0.25971    1.000
    N1078    N        0.18840    0.16740    0.29224    1.000
    N1079    N        0.19430    0.20130    0.35972    1.000
    Si1080   Si       0.20894    0.12383    0.37930    1.000
    Si1081   Si       0.18289    0.06366    0.40834    1.000
    Si1082   Si       0.18213    0.09725    0.47593    1.000
    N1083    N        0.21792    0.07312    0.48155    1.000
    N1084    N        0.16820    0.02201    0.39848    1.000
    Si1085   Si       0.20667    0.24021    0.37316    1.000
    Si1086   Si       0.22420    0.23215    0.45277    1.000
    N1087    N        0.19386    0.13838    0.48028    1.000
    N1088    N        0.17543    0.14572    0.39557    1.000
    N1089    N        0.19824    0.19665    0.45746    1.000
    Si1090   Si       0.16654    0.17566    0.48105    1.000
    Si1091   Si       0.21755    0.15873    0.44642    1.000
    N1092    N        0.18680    0.12334    0.55344    1.000
    Si1093   Si       0.20381    0.08988    0.57649    1.000
    Si1094   Si       0.20288    0.01709    0.54428    1.000
    N1095    N        0.18521    0.07884    0.61446    1.000
    N1096    N        0.21665    0.05953    0.54910    1.000
    N1097    N        0.18020    0.18307    0.59205    1.000
    Si1098   Si       0.18405    0.16805    0.55187    1.000
    N1099    N        0.19271    0.24695    0.60090    1.000
    N1100    N        0.22281    0.17796    0.53428    1.000
    Si1101   Si       0.21168    0.17236    0.62010    1.000
    Si1102   Si       0.18283    0.06040    0.65716    1.000
    N1103    N        0.19998    0.09907    0.73885    1.000
    N1104    N        0.22077    0.07723    0.67238    1.000
    Si1105   Si       0.22021    0.10146    0.63484    1.000
    N1106    N        0.21652    0.01357    0.70965    1.000
    N1107    N        0.18364    0.18722    0.71103    1.000
    N1108    N        0.19649    0.13658    0.64374    1.000
    N1109    N        0.19493    0.25002    0.69291    1.000
    Si1110   Si       0.18344    0.21103    0.67600    1.000
    N1111    N        0.21822    0.20022    0.65263    1.000
    Si1112   Si       0.22063    0.17051    0.72036    1.000
    N1113    N        0.18200    0.10524    0.79805    1.000
    N1114    N        0.20078    0.03708    0.77254    1.000
    Si1115   Si       0.17634    0.07273    0.76796    1.000
    Si1116   Si       0.21544    0.12037    0.77330    1.000
    Si1117   Si       0.22155    0.03176    0.81064    1.000
    N1118    N        0.22329    0.06301    0.83726    1.000
    Si1119   Si       0.17673    0.18073    0.85103    1.000
    N1120    N        0.18417    0.21950    0.77345    1.000
    N1121    N        0.21638    0.18674    0.82773    1.000
    N1122    N        0.17130    0.21993    0.86810    1.000
    N1123    N        0.21922    0.16322    0.76328    1.000
    Si1124   Si       0.22080    0.20096    0.78786    1.000
    N1125    N        0.19864    0.10646    0.92294    1.000
    N1126    N        0.19731    0.03646    0.93717    1.000
    Si1127   Si       0.19820    0.02020    0.97687    1.000
    Si1128   Si       0.22264    0.07081    0.92859    1.000
    Si1129   Si       0.19866    0.13024    0.96126    1.000
    Si1130   Si       0.21182    0.25021    0.95802    1.000
    Si1131   Si       0.21930    0.14560    0.90336    1.000
    N1132    N        0.17882    0.15242    0.88341    1.000
    N1133    N        0.16882    0.16160    0.96483    1.000
    Si1134   Si       0.17444    0.19311    0.99471    1.000
    Si1135   Si       0.20256    0.22412    0.89782    1.000
    N1136    N        0.18089    0.22867    0.93520    1.000
    N1137    N        0.20058    0.23074    0.99664    1.000
    N1138    N        0.21484    0.29128    0.09217    1.000
    Si1139   Si       0.20862    0.37149    0.07432    1.000
    N1140    N        0.20388    0.37559    0.02983    1.000
    Si1141   Si       0.16975    0.38027    0.00415    1.000
    N1142    N        0.16727    0.25684    0.05463    1.000
    Si1143   Si       0.18150    0.47558    0.03742    1.000
    N1144    N        0.20502    0.47176    0.10207    1.000
    N1145    N        0.20598    0.44009    0.04434    1.000
    N1146    N        0.21502    0.40331    0.10663    1.000
    Si1147   Si       0.17135    0.40035    0.11328    1.000
    Si1148   Si       0.22425    0.42275    0.00777    1.000
    N1149    N        0.21503    0.50432    0.03837    1.000
    N1150    N        0.16705    0.48685    0.99556    1.000
    Si1151   Si       0.16890    0.28687    0.17942    1.000
    Si1152   Si       0.19318    0.33033    0.23909    1.000
    N1153    N        0.17483    0.26407    0.21848    1.000
    Si1154   Si       0.21315    0.30237    0.13671    1.000
    N1155    N        0.17481    0.32776    0.19926    1.000
    N1156    N        0.20901    0.27323    0.16616    1.000
    N1157    N        0.21876    0.36667    0.23793    1.000
    N1158    N        0.17146    0.31334    0.13736    1.000
    Si1159   Si       0.21692    0.26103    0.23106    1.000
    Si1160   Si       0.18609    0.47722    0.14049    1.000
    N1161    N        0.20825    0.46721    0.22885    1.000
    Si1162   Si       0.16558    0.47172    0.22391    1.000
    N1163    N        0.21220    0.44922    0.16204    1.000
    N1164    N        0.20784    0.34289    0.36063    1.000
    Si1165   Si       0.16632    0.35169    0.34812    1.000
    Si1166   Si       0.19331    0.42310    0.32565    1.000
    N1167    N        0.17430    0.46222    0.32198    1.000
    Si1168   Si       0.19206    0.50327    0.32199    1.000
    N1169    N        0.21462    0.42445    0.28455    1.000
    N1170    N        0.16531    0.38777    0.32334    1.000
    N1171    N        0.21480    0.50736    0.35951    1.000
    N1172    N        0.22267    0.41137    0.35487    1.000
    N1173    N        0.22330    0.50051    0.29217    1.000
    N1174    N        0.19368    0.32800    0.42629    1.000
    Si1175   Si       0.20433    0.37212    0.47551    1.000
    N1176    N        0.20563    0.26953    0.46984    1.000
    N1177    N        0.18420    0.27584    0.38232    1.000
    Si1178   Si       0.21137    0.31015    0.39112    1.000
    Si1179   Si       0.18480    0.30592    0.46229    1.000
    N1180    N        0.20098    0.33115    0.49677    1.000
    N1181    N        0.19782    0.50608    0.49581    1.000
    N1182    N        0.19788    0.45109    0.46590    1.000
    N1183    N        0.19774    0.45443    0.40078    1.000
    N1184    N        0.18623    0.39064    0.44212    1.000
    Si1185   Si       0.18635    0.49458    0.39036    1.000
    Si1186   Si       0.17850    0.43252    0.43436    1.000
    Si1187   Si       0.21420    0.49040    0.45894    1.000
    Si1188   Si       0.19381    0.31473    0.53892    1.000
    N1189    N        0.20075    0.34691    0.56684    1.000
    Si1190   Si       0.21294    0.33349    0.60696    1.000
    N1191    N        0.22126    0.28022    0.53981    1.000
    Si1192   Si       0.22074    0.38177    0.55079    1.000
    N1193    N        0.16920    0.33978    0.62374    1.000
    Si1194   Si       0.20069    0.43914    0.50588    1.000
    N1195    N        0.20432    0.39660    0.51455    1.000
    Si1196   Si       0.19267    0.43178    0.59776    1.000
    N1197    N        0.18350    0.47250    0.59529    1.000
    Si1198   Si       0.16731    0.27397    0.71632    1.000
    N1199    N        0.21731    0.31422    0.67416    1.000
    Si1200   Si       0.17841    0.33332    0.66804    1.000
    N1201    N        0.20605    0.43046    0.73868    1.000
    N1202    N        0.21724    0.49324    0.71258    1.000
    N1203    N        0.19228    0.41774    0.63975    1.000
    Si1204   Si       0.19603    0.31059    0.82746    1.000
    N1205    N        0.21252    0.27412    0.81035    1.000
    N1206    N        0.20694    0.36751    0.75987    1.000
    Si1207   Si       0.17446    0.33894    0.75978    1.000
    N1208    N        0.17116    0.34024    0.80442    1.000
    N1209    N        0.17667    0.29326    0.75395    1.000
    N1210    N        0.17956    0.29932    0.86557    1.000
    Si1211   Si       0.20923    0.37126    0.80310    1.000
    Si1212   Si       0.17752    0.26219    0.78270    1.000
    Si1213   Si       0.18543    0.43134    0.84167    1.000
    N1214    N        0.21425    0.49049    0.78186    1.000
    Si1215   Si       0.16947    0.48515    0.78939    1.000
    N1216    N        0.21759    0.40941    0.82579    1.000
    N1217    N        0.19306    0.46651    0.86524    1.000
    N1218    N        0.16335    0.44526    0.80762    1.000
    Si1219   Si       0.16722    0.50304    0.85942    1.000
    N1220    N        0.19432    0.34708    0.90925    1.000
    Si1221   Si       0.19341    0.31473    0.98163    1.000
    N1222    N        0.20727    0.29251    0.94575    1.000
    Si1223   Si       0.21162    0.30221    0.90155    1.000
    N1224    N        0.17318    0.35196    0.97301    1.000
    N1225    N        0.17002    0.46649    0.93071    1.000
    Si1226   Si       0.20746    0.45816    0.90709    1.000
    N1227    N        0.18614    0.41815    0.98711    1.000
    N1228    N        0.21337    0.41673    0.91309    1.000
    Si1229   Si       0.20832    0.54840    0.03545    1.000
    N1230    N        0.17911    0.54716    0.06621    1.000
    Si1231   Si       0.20019    0.51541    0.09053    1.000
    N1232    N        0.19480    0.55385    0.99439    1.000
    N1233    N        0.19227    0.63638    0.09369    1.000
    Si1234   Si       0.16996    0.75773    0.06657    1.000
    Si1235   Si       0.20636    0.64997    0.05416    1.000
    N1236    N        0.18610    0.73407    0.09978    1.000
    N1237    N        0.17645    0.64797    0.02363    1.000
    N1238    N        0.22396    0.51483    0.17720    1.000
    N1239    N        0.19931    0.62621    0.15139    1.000
    N1240    N        0.17692    0.52034    0.12974    1.000
    N1241    N        0.19396    0.54055    0.23578    1.000
    Si1242   Si       0.18710    0.53323    0.19358    1.000
    Si1243   Si       0.20014    0.62302    0.19283    1.000
    N1244    N        0.16716    0.61982    0.22172    1.000
    N1245    N        0.20608    0.66536    0.20715    1.000
    Si1246   Si       0.17565    0.65804    0.24276    1.000
    Si1247   Si       0.22386    0.64886    0.12275    1.000
    Si1248   Si       0.18074    0.70185    0.19481    1.000
    N1249    N        0.20724    0.73555    0.19094    1.000
    Si1250   Si       0.19235    0.57608    0.31594    1.000
    N1251    N        0.16980    0.53895    0.30606    1.000
    N1252    N        0.21493    0.58172    0.35501    1.000
    N1253    N        0.21781    0.59061    0.28291    1.000
    Si1254   Si       0.17806    0.59653    0.37175    1.000
    Si1255   Si       0.19885    0.71287    0.35319    1.000
    N1256    N        0.19107    0.64958    0.28098    1.000
    N1257    N        0.18919    0.75494    0.34463    1.000
    N1258    N        0.21671    0.58320    0.44300    1.000
    Si1259   Si       0.18586    0.55444    0.43598    1.000
    Si1260   Si       0.21562    0.62361    0.42393    1.000
    N1261    N        0.19574    0.51335    0.42888    1.000
    N1262    N        0.18629    0.63267    0.39106    1.000
    Si1263   Si       0.20904    0.65154    0.49390    1.000
    N1264    N        0.19355    0.64856    0.45349    1.000
    N1265    N        0.20074    0.70213    0.39543    1.000
    N1266    N        0.20785    0.73213    0.45982    1.000
    Si1267   Si       0.16994    0.74941    0.47151    1.000
    Si1268   Si       0.16889    0.67232    0.39028    1.000
    Si1269   Si       0.18304    0.60307    0.53815    1.000
    N1270    N        0.19634    0.60723    0.58079    1.000
    N1271    N        0.20942    0.57666    0.51667    1.000
    Si1272   Si       0.20431    0.53367    0.52727    1.000
    Si1273   Si       0.16691    0.61625    0.61331    1.000
    N1274    N        0.16718    0.52022    0.54583    1.000
    N1275    N        0.17751    0.64400    0.52401    1.000
    N1276    N        0.21370    0.69904    0.58786    1.000
    Si1277   Si       0.17013    0.70519    0.59393    1.000
    N1278    N        0.17280    0.74837    0.58378    1.000
    N1279    N        0.16703    0.74671    0.51410    1.000
    Si1280   Si       0.18721    0.58432    0.73573    1.000
    N1281    N        0.17678    0.58662    0.64605    1.000
    N1282    N        0.21456    0.53792    0.65708    1.000
    N1283    N        0.21467    0.59685    0.70514    1.000
    Si1284   Si       0.21901    0.58450    0.66455    1.000
    Si1285   Si       0.17168    0.54113    0.64831    1.000
    Si1286   Si       0.17993    0.51154    0.72510    1.000
    N1287    N        0.22117    0.70290    0.66172    1.000
    N1288    N        0.20326    0.66876    0.71994    1.000
    Si1289   Si       0.22353    0.63158    0.72959    1.000
    N1290    N        0.18863    0.73349    0.70870    1.000
    Si1291   Si       0.16735    0.69523    0.72051    1.000
    Si1292   Si       0.19006    0.73360    0.66366    1.000
    N1293    N        0.19666    0.61491    0.76355    1.000
    Si1294   Si       0.20699    0.60091    0.80287    1.000
    N1295    N        0.17905    0.61682    0.83172    1.000
    N1296    N        0.21868    0.55964    0.81217    1.000
    Si1297   Si       0.22118    0.55562    0.85602    1.000
    N1298    N        0.19177    0.54355    0.74962    1.000
    Si1299   Si       0.22395    0.53274    0.77822    1.000
    Si1300   Si       0.17754    0.71909    0.79456    1.000
    N1301    N        0.21417    0.73641    0.77496    1.000
    N1302    N        0.19052    0.68477    0.81798    1.000
    N1303    N        0.18831    0.53757    0.87563    1.000
    Si1304   Si       0.18469    0.61700    0.87533    1.000
    Si1305   Si       0.18197    0.55541    0.91478    1.000
    N1306    N        0.22224    0.59459    0.87359    1.000
    N1307    N        0.16463    0.65497    0.88103    1.000
    N1308    N        0.17657    0.70114    0.98833    1.000
    Si1309   Si       0.18541    0.75241    0.92876    1.000
    N1310    N        0.20863    0.67819    0.92823    1.000
    Si1311   Si       0.16675    0.67814    0.91728    1.000
    Si1312   Si       0.21549    0.69805    0.96746    1.000
    N1313    N        0.22113    0.74023    0.95482    1.000
    Si1314   Si       0.19950    0.85281    0.08365    1.000
    Si1315   Si       0.19703    0.80689    0.02137    1.000
    N1316    N        0.21464    0.81851    0.06033    1.000
    N1317    N        0.17154    0.87034    0.05418    1.000
    N1318    N        0.18553    0.76439    0.02636    1.000
    Si1319   Si       0.17882    0.90594    0.02760    1.000
    N1320    N        0.21124    0.94486    0.08752    1.000
    Si1321   Si       0.17265    0.96039    0.07328    1.000
    N1322    N        0.18155    0.00000    0.05699    1.000
    N1323    N        0.22008    0.91902    0.02331    1.000
    N1324    N        0.18791    0.84279    0.12447    1.000
    Si1325   Si       0.18494    0.77270    0.18797    1.000
    Si1326   Si       0.20408    0.84605    0.16356    1.000
    Si1327   Si       0.20880    0.86025    0.23601    1.000
    N1328    N        0.18355    0.85997    0.19871    1.000
    N1329    N        0.21593    0.80352    0.17419    1.000
    Si1330   Si       0.22003    0.96103    0.19985    1.000
    N1331    N        0.18656    0.95506    0.22708    1.000
    N1332    N        0.20029    0.96268    0.15998    1.000
    Si1333   Si       0.17235    0.92100    0.24978    1.000
    Si1334   Si       0.18537    0.85465    0.35418    1.000
    Si1335   Si       0.21360    0.78830    0.35766    1.000
    N1336    N        0.21201    0.82518    0.33567    1.000
    N1337    N        0.21950    0.76426    0.28670    1.000
    Si1338   Si       0.18082    0.76152    0.30248    1.000
    N1339    N        0.20450    0.81791    0.24519    1.000
    N1340    N        0.19836    0.88849    0.26597    1.000
    N1341    N        0.19027    0.96287    0.35609    1.000
    Si1342   Si       0.20166    0.90727    0.30527    1.000
    N1343    N        0.18045    0.89588    0.34048    1.000
    Si1344   Si       0.16772    0.92796    0.36497    1.000
    N1345    N        0.16921    0.93871    0.29027    1.000
    Si1346   Si       0.21433    0.00472    0.25949    1.000
    N1347    N        0.17010    0.79111    0.46114    1.000
    N1348    N        0.20321    0.79675    0.39816    1.000
    N1349    N        0.21094    0.86516    0.38699    1.000
    Si1350   Si       0.17057    0.80921    0.42224    1.000
    Si1351   Si       0.18654    0.88100    0.41799    1.000
    Si1352   Si       0.19198    0.88922    0.48677    1.000
    Si1353   Si       0.21703    0.96140    0.48901    1.000
    N1354    N        0.21361    0.88599    0.45106    1.000
    N1355    N        0.17245    0.91992    0.40682    1.000
    N1356    N        0.17927    0.96952    0.47042    1.000
    N1357    N        0.20062    0.80060    0.54403    1.000
    Si1358   Si       0.19161    0.84039    0.53257    1.000
    N1359    N        0.17338    0.85674    0.56730    1.000
    Si1360   Si       0.19154    0.76084    0.54754    1.000
    N1361    N        0.16620    0.85458    0.50108    1.000
    Si1362   Si       0.19407    0.95282    0.58926    1.000
    N1363    N        0.21231    0.91267    0.58805    1.000
    N1364    N        0.20267    0.99617    0.58166    1.000
    N1365    N        0.21207    0.92190    0.50689    1.000
    Si1366   Si       0.17115    0.89812    0.58027    1.000
    N1367    N        0.18592    0.83353    0.67925    1.000
    N1368    N        0.20276    0.77155    0.64633    1.000
    Si1369   Si       0.17107    0.80019    0.65238    1.000
    Si1370   Si       0.20054    0.76111    0.74297    1.000
    Si1371   Si       0.21257    0.90615    0.70305    1.000
    Si1372   Si       0.19449    0.99994    0.62738    1.000
    N1373    N        0.20653    0.94825    0.69031    1.000
    Si1374   Si       0.16972    0.94501    0.66818    1.000
    N1375    N        0.18336    0.88751    0.72922    1.000
    N1376    N        0.18073    0.95877    0.62981    1.000
    Si1377   Si       0.18798    0.84892    0.84898    1.000
    Si1378   Si       0.18048    0.78657    0.80854    1.000
    N1379    N        0.17536    0.79038    0.76527    1.000
    N1380    N        0.22306    0.85927    0.82384    1.000
    N1381    N        0.22278    0.78643    0.81998    1.000
    N1382    N        0.18454    0.92426    0.80081    1.000
    N1383    N        0.20938    0.99200    0.82831    1.000
    Si1384   Si       0.22150    0.94991    0.80895    1.000
    Si1385   Si       0.20299    0.00071    0.74767    1.000
    N1386    N        0.22752    0.96746    0.76756    1.000
    N1387    N        0.21329    0.76534    0.89774    1.000
    Si1388   Si       0.18110    0.82492    0.92316    1.000
    N1389    N        0.20191    0.85481    0.95122    1.000
    N1390    N        0.20434    0.83402    0.88620    1.000
    N1391    N        0.16803    0.78895    0.94473    1.000
    N1392    N        0.21029    0.97619    0.90294    1.000
    N1393    N        0.22173    0.92441    0.95631    1.000
    Si1394   Si       0.17026    0.95442    0.90444    1.000
    Si1395   Si       0.18962    0.89517    0.95357    1.000
    N1396    N        0.16701    0.91488    0.92076    1.000
    N1397    N        0.26327    0.08737    0.03068    1.000
    Si1398   Si       0.23955    0.08783    0.06740    1.000
    N1399    N        0.27388    0.09905    0.09185    1.000
    Si1400   Si       0.23319    0.07690    0.00168    1.000
    N1401    N        0.22494    0.04799    0.07969    1.000
    Si1402   Si       0.23944    0.22677    0.01665    1.000
    N1403    N        0.24416    0.16879    0.09404    1.000
    Si1404   Si       0.25567    0.21068    0.09123    1.000
    N1405    N        0.23221    0.22935    0.06039    1.000
    Si1406   Si       0.27946    0.14385    0.08767    1.000
    N1407    N        0.25566    0.19039    0.00323    1.000
    N1408    N        0.23607    0.06656    0.15037    1.000
    N1409    N        0.23804    0.11930    0.19878    1.000
    Si1410   Si       0.27710    0.06939    0.16152    1.000
    N1411    N        0.25053    0.23755    0.12661    1.000
    N1412    N        0.28237    0.17480    0.20355    1.000
    N1413    N        0.24681    0.23544    0.21054    1.000
    Si1414   Si       0.24272    0.19246    0.20264    1.000
    N1415    N        0.24518    0.07184    0.32711    1.000
    Si1416   Si       0.24349    0.02687    0.31278    1.000
    N1417    N        0.24943    0.10912    0.26413    1.000
    Si1418   Si       0.27350    0.12038    0.34247    1.000
    N1419    N        0.22822    0.04371    0.27389    1.000
    N1420    N        0.22720    0.01934    0.35451    1.000
    Si1421   Si       0.23532    0.23545    0.30125    1.000
    N1422    N        0.24769    0.19652    0.31382    1.000
    N1423    N        0.23063    0.14090    0.34650    1.000
    N1424    N        0.27104    0.25942    0.29662    1.000
    Si1425   Si       0.24439    0.05761    0.37171    1.000
    Si1426   Si       0.24496    0.05770    0.45224    1.000
    Si1427   Si       0.27531    0.11345    0.41458    1.000
    N1428    N        0.26899    0.09427    0.37630    1.000
    N1429    N        0.26940    0.02041    0.45210    1.000
    N1430    N        0.28050    0.08038    0.44088    1.000
    N1431    N        0.27984    0.03078    0.38353    1.000
    N1432    N        0.22496    0.05586    0.41450    1.000
    N1433    N        0.23467    0.13278    0.41635    1.000
    N1434    N        0.23487    0.23760    0.40933    1.000
    N1435    N        0.25548    0.15836    0.47208    1.000
    N1436    N        0.25574    0.23342    0.48382    1.000
    N1437    N        0.25507    0.11574    0.52319    1.000
    N1438    N        0.24104    0.10244    0.59779    1.000
    Si1439   Si       0.24308    0.07475    0.51837    1.000
    N1440    N        0.27691    0.04751    0.51896    1.000
    Si1441   Si       0.28448    0.10542    0.58941    1.000
    N1442    N        0.25659    0.23172    0.57127    1.000
    Si1443   Si       0.25584    0.19067    0.55912    1.000
    N1444    N        0.25004    0.17090    0.59882    1.000
    Si1445   Si       0.23012    0.14477    0.50634    1.000
    Si1446   Si       0.24690    0.03875    0.68431    1.000
    N1447    N        0.25871    0.06607    0.72201    1.000
    Si1448   Si       0.23022    0.09564    0.71018    1.000
    N1449    N        0.23025    0.00913    0.64794    1.000
    N1450    N        0.28452    0.05605    0.66742    1.000
    Si1451   Si       0.27635    0.16550    0.70403    1.000
    N1452    N        0.24499    0.13705    0.70416    1.000
    N1453    N        0.28175    0.17720    0.66372    1.000
    Si1454   Si       0.26917    0.23253    0.73733    1.000
    N1455    N        0.25101    0.20222    0.71243    1.000
    N1456    N        0.25778    0.25618    0.65803    1.000
    Si1457   Si       0.25526    0.21427    0.67018    1.000
    N1458    N        0.26119    0.02909    0.79212    1.000
    Si1459   Si       0.26634    0.06331    0.76645    1.000
    N1460    N        0.25509    0.10299    0.78039    1.000
    Si1461   Si       0.24907    0.09032    0.85949    1.000
    N1462    N        0.26622    0.01164    0.86173    1.000
    Si1463   Si       0.28564    0.12186    0.80469    1.000
    N1464    N        0.25174    0.23035    0.77770    1.000
    Si1465   Si       0.24979    0.17293    0.85551    1.000
    N1466    N        0.27881    0.16181    0.81831    1.000
    N1467    N        0.24158    0.13205    0.86852    1.000
    N1468    N        0.24944    0.07030    0.96284    1.000
    N1469    N        0.25265    0.06932    0.89552    1.000
    Si1470   Si       0.28308    0.03738    0.89187    1.000
    N1471    N        0.23304    0.15211    0.94446    1.000
    N1472    N        0.24946    0.22818    0.95185    1.000
    N1473    N        0.22798    0.18977    0.89212    1.000
    Si1474   Si       0.25601    0.18493    0.95792    1.000
    Si1475   Si       0.24913    0.31582    0.08948    1.000
    N1476    N        0.24615    0.35152    0.06733    1.000
    Si1477   Si       0.24575    0.35622    0.02299    1.000
    N1478    N        0.22973    0.32029    0.00503    1.000
    N1479    N        0.28172    0.29016    0.08043    1.000
    N1480    N        0.27008    0.25716    0.00802    1.000
    N1481    N        0.27891    0.50481    0.04321    1.000
    N1482    N        0.26231    0.39550    0.00746    1.000
    Si1483   Si       0.24954    0.49587    0.01300    1.000
    N1484    N        0.26982    0.43253    0.06734    1.000
    Si1485   Si       0.22728    0.44036    0.08198    1.000
    N1486    N        0.27792    0.34573    0.20323    1.000
    Si1487   Si       0.27021    0.35146    0.15906    1.000
    N1488    N        0.24773    0.32566    0.13343    1.000
    Si1489   Si       0.26576    0.31806    0.23572    1.000
    Si1490   Si       0.25049    0.38096    0.21148    1.000
    N1491    N        0.22621    0.30152    0.24166    1.000
    N1492    N        0.24761    0.38869    0.16792    1.000
    Si1493   Si       0.23564    0.42029    0.14229    1.000
    N1494    N        0.27008    0.44419    0.13091    1.000
    N1495    N        0.27261    0.46216    0.19569    1.000
    Si1496   Si       0.23154    0.47507    0.19168    1.000
    N1497    N        0.26710    0.40595    0.24073    1.000
    N1498    N        0.24860    0.36738    0.30584    1.000
    Si1499   Si       0.23849    0.37228    0.34957    1.000
    Si1500   Si       0.26648    0.27782    0.33504    1.000
    N1501    N        0.22563    0.25874    0.33752    1.000
    Si1502   Si       0.22443    0.46456    0.26807    1.000
    Si1503   Si       0.23725    0.39169    0.27022    1.000
    N1504    N        0.26896    0.46975    0.26371    1.000
    Si1505   Si       0.25892    0.50682    0.35713    1.000
    N1506    N        0.28523    0.50344    0.32334    1.000
    N1507    N        0.27427    0.36499    0.37262    1.000
    N1508    N        0.25499    0.30251    0.39264    1.000
    N1509    N        0.24958    0.36831    0.47323    1.000
    N1510    N        0.26579    0.30171    0.48884    1.000
    Si1511   Si       0.27123    0.26108    0.40311    1.000
    N1512    N        0.25658    0.48608    0.45338    1.000
    Si1513   Si       0.27868    0.49492    0.41622    1.000
    Si1514   Si       0.27145    0.46304    0.48649    1.000
    Si1515   Si       0.27589    0.39747    0.45491    1.000
    N1516    N        0.25758    0.41116    0.41782    1.000
    N1517    N        0.26380    0.46952    0.38104    1.000
    Si1518   Si       0.23499    0.43675    0.38871    1.000
    N1519    N        0.25703    0.36078    0.54143    1.000
    N1520    N        0.23698    0.29879    0.60466    1.000
    Si1521   Si       0.22586    0.26191    0.57892    1.000
    Si1522   Si       0.23631    0.27032    0.49984    1.000
    Si1523   Si       0.25029    0.33961    0.50333    1.000
    N1524    N        0.26903    0.47102    0.58195    1.000
    Si1525   Si       0.26784    0.42907    0.59305    1.000
    Si1526   Si       0.26095    0.48542    0.54288    1.000
    N1527    N        0.24049    0.45569    0.51653    1.000
    N1528    N        0.22891    0.41582    0.57944    1.000
    Si1529   Si       0.27537    0.49135    0.61971    1.000
    Si1530   Si       0.26958    0.29096    0.63235    1.000
    N1531    N        0.27023    0.34004    0.71434    1.000
    Si1532   Si       0.25003    0.34522    0.67514    1.000
    N1533    N        0.25610    0.27141    0.72198    1.000
    Si1534   Si       0.23139    0.27399    0.68737    1.000
    N1535    N        0.23175    0.36330    0.62886    1.000
    Si1536   Si       0.27990    0.30223    0.73671    1.000
    N1537    N        0.26903    0.39910    0.74161    1.000
    N1538    N        0.27185    0.46663    0.74559    1.000
    Si1539   Si       0.22699    0.39234    0.73007    1.000
    N1540    N        0.23132    0.38416    0.68740    1.000
    N1541    N        0.26850    0.42062    0.63600    1.000
    N1542    N        0.25365    0.47754    0.65566    1.000
    Si1543   Si       0.23105    0.40190    0.64850    1.000
    Si1544   Si       0.25968    0.34152    0.85624    1.000
    N1545    N        0.22876    0.34028    0.82616    1.000
    N1546    N        0.27490    0.30004    0.78131    1.000
    Si1547   Si       0.25416    0.26727    0.80336    1.000
    Si1548   Si       0.25750    0.41461    0.84912    1.000
    N1549    N        0.28155    0.44586    0.86916    1.000
    Si1550   Si       0.22888    0.46820    0.74715    1.000
    N1551    N        0.27646    0.29701    0.95594    1.000
    Si1552   Si       0.27527    0.32838    0.92472    1.000
    N1553    N        0.25445    0.31414    0.88945    1.000
    N1554    N        0.25233    0.36083    0.94015    1.000
    Si1555   Si       0.26469    0.27049    0.87992    1.000
    Si1556   Si       0.22580    0.37651    0.90849    1.000
    N1557    N        0.25220    0.37994    0.87426    1.000
    N1558    N        0.22463    0.25960    0.89075    1.000
    Si1559   Si       0.26685    0.30070    0.99800    1.000
    N1560    N        0.24285    0.45901    0.99066    1.000
    Si1561   Si       0.27395    0.39061    0.96324    1.000
    N1562    N        0.28146    0.42438    0.93838    1.000
    N1563    N        0.24238    0.48269    0.92232    1.000
    Si1564   Si       0.26607    0.46356    0.95397    1.000
    N1565    N        0.24719    0.56458    0.04534    1.000
    N1566    N        0.24046    0.52800    0.10158    1.000
    Si1567   Si       0.26427    0.59782    0.02669    1.000
    Si1568   Si       0.27021    0.53591    0.07083    1.000
    N1569    N        0.24450    0.63349    0.04254    1.000
    Si1570   Si       0.26647    0.66128    0.06601    1.000
    N1571    N        0.26416    0.73613    0.01327    1.000
    N1572    N        0.25113    0.74985    0.08304    1.000
    N1573    N        0.26836    0.64388    0.10816    1.000
    N1574    N        0.22735    0.68652    0.06788    1.000
    Si1575   Si       0.28195    0.74812    0.04973    1.000
    Si1576   Si       0.22611    0.71785    0.09966    1.000
    Si1577   Si       0.28255    0.69804    0.00173    1.000
    Si1578   Si       0.24974    0.53228    0.14492    1.000
    N1579    N        0.25535    0.57349    0.15214    1.000
    Si1580   Si       0.26325    0.59875    0.18633    1.000
    N1581    N        0.22676    0.59334    0.21127    1.000
    Si1582   Si       0.22730    0.56963    0.24633    1.000
    N1583    N        0.22534    0.69102    0.13213    1.000
    N1584    N        0.26155    0.64131    0.18008    1.000
    N1585    N        0.26827    0.70374    0.21408    1.000
    Si1586   Si       0.24921    0.66650    0.21428    1.000
    Si1587   Si       0.24950    0.74177    0.20027    1.000
    N1588    N        0.27063    0.75467    0.16471    1.000
    Si1589   Si       0.25084    0.60799    0.35933    1.000
    N1590    N        0.26434    0.54876    0.25769    1.000
    Si1591   Si       0.26615    0.50901    0.28308    1.000
    Si1592   Si       0.23044    0.63187    0.28678    1.000
    N1593    N        0.24505    0.63857    0.32957    1.000
    Si1594   Si       0.26564    0.67627    0.33168    1.000
    N1595    N        0.23632    0.70737    0.33468    1.000
    Si1596   Si       0.24646    0.74556    0.31578    1.000
    N1597    N        0.25212    0.64583    0.25377    1.000
    Si1598   Si       0.23913    0.58371    0.48201    1.000
    N1599    N        0.27875    0.56214    0.48513    1.000
    N1600    N        0.27929    0.52927    0.38833    1.000
    N1601    N        0.25238    0.62770    0.40060    1.000
    N1602    N        0.24372    0.62432    0.49292    1.000
    Si1603   Si       0.22880    0.71856    0.42466    1.000
    N1604    N        0.27192    0.73714    0.48960    1.000
    N1605    N        0.25608    0.75034    0.41500    1.000
    Si1606   Si       0.27853    0.66083    0.40780    1.000
    N1607    N        0.25831    0.68708    0.43666    1.000
    Si1608   Si       0.22876    0.72762    0.49634    1.000
    N1609    N        0.26429    0.59154    0.57664    1.000
    Si1610   Si       0.26946    0.54808    0.57403    1.000
    N1611    N        0.24033    0.52387    0.54809    1.000
    Si1612   Si       0.23657    0.62422    0.58460    1.000
    N1613    N        0.27694    0.53371    0.61238    1.000
    Si1614   Si       0.23994    0.69885    0.55353    1.000
    N1615    N        0.26152    0.65392    0.56049    1.000
    N1616    N        0.23036    0.74265    0.53739    1.000
    Si1617   Si       0.27391    0.64637    0.51753    1.000
    N1618    N        0.27436    0.70207    0.61949    1.000
    N1619    N        0.22986    0.68612    0.50947    1.000
    Si1620   Si       0.27413    0.75246    0.53327    1.000
    Si1621   Si       0.23740    0.50844    0.68005    1.000
    N1622    N        0.27207    0.53143    0.69079    1.000
    N1623    N        0.26114    0.58863    0.65383    1.000
    Si1624   Si       0.27190    0.63229    0.64981    1.000
    Si1625   Si       0.26865    0.75523    0.70514    1.000
    N1626    N        0.27109    0.75569    0.66232    1.000
    N1627    N        0.23664    0.64246    0.62573    1.000
    Si1628   Si       0.23354    0.68574    0.62381    1.000
    Si1629   Si       0.23664    0.68846    0.69883    1.000
    N1630    N        0.26882    0.71423    0.71535    1.000
    N1631    N        0.26271    0.65299    0.68851    1.000
    N1632    N        0.26307    0.53386    0.76120    1.000
    Si1633   Si       0.25054    0.62389    0.85958    1.000
    N1634    N        0.24368    0.62082    0.81570    1.000
    N1635    N        0.25290    0.52867    0.86723    1.000
    N1636    N        0.26121    0.63190    0.74994    1.000
    N1637    N        0.26533    0.68337    0.80292    1.000
    Si1638   Si       0.27102    0.64294    0.79001    1.000
    N1639    N        0.23667    0.73126    0.84077    1.000
    Si1640   Si       0.23138    0.68949    0.83099    1.000
    Si1641   Si       0.24423    0.75061    0.80167    1.000
    N1642    N        0.24124    0.66580    0.86685    1.000
    N1643    N        0.25890    0.52573    0.98184    1.000
    Si1644   Si       0.25282    0.52405    0.91055    1.000
    N1645    N        0.25173    0.59551    0.98480    1.000
    Si1646   Si       0.23232    0.55744    0.97265    1.000
    N1647    N        0.22512    0.55120    0.92969    1.000
    Si1648   Si       0.26768    0.63459    0.96904    1.000
    N1649    N        0.26755    0.63860    0.92441    1.000
    Si1650   Si       0.24779    0.67379    0.90858    1.000
    N1651    N        0.26978    0.70787    0.91885    1.000
    Si1652   Si       0.25400    0.74890    0.92265    1.000
    N1653    N        0.25133    0.67542    0.98034    1.000
    Si1654   Si       0.24747    0.79490    0.07774    1.000
    N1655    N        0.27923    0.79399    0.04850    1.000
    N1656    N        0.25870    0.81087    0.11574    1.000
    N1657    N        0.23216    0.88077    0.08645    1.000
    N1658    N        0.25142    0.98881    0.04279    1.000
    Si1659   Si       0.23554    0.91697    0.06361    1.000
    N1660    N        0.27755    0.92454    0.06316    1.000
    Si1661   Si       0.26378    0.98799    0.99856    1.000
    Si1662   Si       0.25695    0.79592    0.15909    1.000
    N1663    N        0.25092    0.86184    0.22728    1.000
    N1664    N        0.25581    0.77330    0.22912    1.000
    N1665    N        0.23845    0.87155    0.15863    1.000
    N1666    N        0.23954    0.00034    0.12393    1.000
    N1667    N        0.25789    0.93163    0.13303    1.000
    N1668    N        0.23748    0.99565    0.22296    1.000
    N1669    N        0.25296    0.93108    0.19810    1.000
    Si1670   Si       0.25585    0.88867    0.19391    1.000
    Si1671   Si       0.25566    0.88610    0.12274    1.000
    Si1672   Si       0.27670    0.00703    0.20956    1.000
    Si1673   Si       0.22489    0.95965    0.12449    1.000
    N1674    N        0.26152    0.82293    0.28433    1.000
    N1675    N        0.25374    0.78045    0.34549    1.000
    Si1676   Si       0.23670    0.79545    0.26076    1.000
    N1677    N        0.26441    0.86285    0.34525    1.000
    Si1678   Si       0.26256    0.82275    0.32803    1.000
    Si1679   Si       0.27871    0.85426    0.25966    1.000
    N1680    N        0.24025    0.92335    0.31637    1.000
    Si1681   Si       0.27652    0.90111    0.32530    1.000
    N1682    N        0.26351    0.96430    0.36159    1.000
    Si1683   Si       0.23018    0.96252    0.33532    1.000
    N1684    N        0.22466    0.98639    0.29818    1.000
    N1685    N        0.28675    0.88765    0.28540    1.000
    N1686    N        0.24134    0.80351    0.46256    1.000
    Si1687   Si       0.25399    0.86454    0.38683    1.000
    N1688    N        0.26539    0.82594    0.40737    1.000
    Si1689   Si       0.24091    0.79133    0.41994    1.000
    Si1690   Si       0.25131    0.82399    0.49718    1.000
    N1691    N        0.24479    0.95252    0.45663    1.000
    N1692    N        0.27452    0.89433    0.47806    1.000
    Si1693   Si       0.25006    0.90991    0.44632    1.000
    N1694    N        0.26626    0.90349    0.40636    1.000
    Si1695   Si       0.27985    0.97748    0.45448    1.000
    N1696    N        0.25788    0.77544    0.59443    1.000
    Si1697   Si       0.24072    0.80323    0.56538    1.000
    N1698    N        0.26724    0.79985    0.52923    1.000
    N1699    N        0.24565    0.84201    0.58489    1.000
    N1700    N        0.22759    0.85747    0.51228    1.000
    Si1701   Si       0.27530    0.84136    0.61824    1.000
    Si1702   Si       0.24509    0.88533    0.58449    1.000
    N1703    N        0.26758    0.90269    0.55216    1.000
    Si1704   Si       0.24797    0.89704    0.51423    1.000
    N1705    N        0.23012    0.99391    0.51414    1.000
    Si1706   Si       0.27386    0.00299    0.51943    1.000
    N1707    N        0.27428    0.88480    0.61795    1.000
    Si1708   Si       0.26712    0.80735    0.73881    1.000
    N1709    N        0.25232    0.81988    0.64807    1.000
    Si1710   Si       0.24498    0.77878    0.63664    1.000
    N1711    N        0.25564    0.83888    0.71360    1.000
    N1712    N        0.23598    0.77813    0.72561    1.000
    Si1713   Si       0.22953    0.84001    0.67879    1.000
    Si1714   Si       0.27942    0.87479    0.71949    1.000
    Si1715   Si       0.23784    0.97939    0.68312    1.000
    N1716    N        0.22906    0.88297    0.67036    1.000
    N1717    N        0.25082    0.90751    0.72654    1.000
    Si1718   Si       0.26563    0.90134    0.65662    1.000
    N1719    N        0.27704    0.99821    0.69498    1.000
    N1720    N        0.26651    0.94571    0.66003    1.000
    N1721    N        0.26687    0.81884    0.78017    1.000
    Si1722   Si       0.24662    0.82472    0.81783    1.000
    N1723    N        0.26118    0.81648    0.85834    1.000
    Si1724   Si       0.23730    0.77284    0.86180    1.000
    Si1725   Si       0.25114    0.89043    0.83044    1.000
    N1726    N        0.25110    0.91709    0.79568    1.000
    N1727    N        0.24345    0.94246    0.85202    1.000
    Si1728   Si       0.25751    0.93509    0.75785    1.000
    Si1729   Si       0.23178    0.98432    0.86573    1.000
    Si1730   Si       0.24473    0.76472    0.98414    1.000
    N1731    N        0.26250    0.83335    0.93018    1.000
    Si1732   Si       0.24645    0.84461    0.89008    1.000
    Si1733   Si       0.23935    0.84371    0.96988    1.000
    N1734    N        0.26190    0.87613    0.98884    1.000
    N1735    N        0.27532    0.77344    0.95533    1.000
    N1736    N        0.22819    0.80591    0.99123    1.000
    N1737    N        0.27676    0.76436    0.88647    1.000
    Si1738   Si       0.24884    0.91851    0.99087    1.000
    Si1739   Si       0.23378    0.96223    0.93751    1.000
    N1740    N        0.27126    0.95137    0.91636    1.000
    N1741    N        0.22835    0.98821    0.97248    1.000
    N1742    N        0.28310    0.94779    0.98861    1.000
    N1743    N        0.25611    0.88296    0.87589    1.000
    Si1744   Si       0.26820    0.92464    0.88319    1.000
    N1745    N        0.31817    0.04025    0.06243    1.000
    Si1746   Si       0.32319    0.02028    0.02352    1.000
    Si1747   Si       0.30502    0.06799    0.09346    1.000
    Si1748   Si       0.29902    0.11151    0.02283    1.000
    N1749    N        0.33787    0.09241    0.10945    1.000
    Si1750   Si       0.31250    0.24501    0.01332    1.000
    Si1751   Si       0.32813    0.19532    0.10203    1.000
    N1752    N        0.31976    0.20401    0.01897    1.000
    N1753    N        0.29803    0.22110    0.08995    1.000
    Si1754   Si       0.29341    0.17156    0.01384    1.000
    N1755    N        0.29155    0.14665    0.04836    1.000
    N1756    N        0.31208    0.15634    0.11261    1.000
    Si1757   Si       0.28862    0.25795    0.11061    1.000
    N1758    N        0.29291    0.10906    0.16157    1.000
    Si1759   Si       0.32672    0.12275    0.13777    1.000
    Si1760   Si       0.31825    0.05439    0.22463    1.000
    N1761    N        0.29244    0.04323    0.13025    1.000
    N1762    N        0.31247    0.12672    0.22828    1.000
    N1763    N        0.28210    0.04915    0.20045    1.000
    N1764    N        0.31102    0.00796    0.23570    1.000
    Si1765   Si       0.28006    0.13171    0.19691    1.000
    N1766    N        0.30666    0.24613    0.17790    1.000
    Si1767   Si       0.28692    0.24645    0.21467    1.000
    Si1768   Si       0.30978    0.17805    0.23903    1.000
    N1769    N        0.30364    0.10703    0.31330    1.000
    N1770    N        0.31265    0.07451    0.26108    1.000
    Si1771   Si       0.29353    0.11486    0.26920    1.000
    Si1772   Si       0.33412    0.07656    0.30202    1.000
    N1773    N        0.28518    0.01629    0.31407    1.000
    N1774    N        0.28777    0.25356    0.36473    1.000
    N1775    N        0.32483    0.21711    0.31442    1.000
    Si1776   Si       0.32560    0.23513    0.35363    1.000
    N1777    N        0.29647    0.15960    0.34859    1.000
    N1778    N        0.29360    0.16043    0.27629    1.000
    Si1779   Si       0.28900    0.18479    0.31256    1.000
    Si1780   Si       0.30974    0.24339    0.28333    1.000
    N1781    N        0.30192    0.22159    0.24815    1.000
    N1782    N        0.33421    0.03225    0.41989    1.000
    Si1783   Si       0.29375    0.04327    0.42188    1.000
    N1784    N        0.30201    0.26036    0.43396    1.000
    N1785    N        0.32796    0.20934    0.38949    1.000
    Si1786   Si       0.32494    0.16637    0.38339    1.000
    Si1787   Si       0.29690    0.15726    0.45834    1.000
    N1788    N        0.31041    0.19732    0.46004    1.000
    N1789    N        0.30450    0.14575    0.41719    1.000
    Si1790   Si       0.32878    0.22275    0.43065    1.000
    N1791    N        0.31768    0.13598    0.49016    1.000
    Si1792   Si       0.30731    0.04903    0.55028    1.000
    N1793    N        0.30947    0.12045    0.55757    1.000
    N1794    N        0.29559    0.06232    0.58937    1.000
    N1795    N        0.30210    0.12708    0.62351    1.000
    Si1796   Si       0.29262    0.13988    0.52388    1.000
    Si1797   Si       0.29526    0.23683    0.58700    1.000
    N1798    N        0.30894    0.20122    0.60629    1.000
    N1799    N        0.31884    0.25122    0.50005    1.000
    N1800    N        0.33514    0.23833    0.56561    1.000
    N1801    N        0.28890    0.18493    0.53071    1.000
    Si1802   Si       0.28785    0.16745    0.62266    1.000
    Si1803   Si       0.29177    0.21373    0.49601    1.000
    N1804    N        0.32136    0.10065    0.70904    1.000
    Si1805   Si       0.30425    0.04700    0.63011    1.000
    Si1806   Si       0.30175    0.06149    0.70954    1.000
    N1807    N        0.33325    0.03141    0.70394    1.000
    Si1808   Si       0.32734    0.12360    0.74360    1.000
    Si1809   Si       0.33640    0.19181    0.73216    1.000
    N1810    N        0.31191    0.22876    0.73233    1.000
    N1811    N        0.30607    0.16039    0.73409    1.000
    N1812    N        0.32217    0.03391    0.81856    1.000
    Si1813   Si       0.32275    0.06958    0.84294    1.000
    N1814    N        0.32550    0.12101    0.78689    1.000
    N1815    N        0.30865    0.06244    0.75698    1.000
    Si1816   Si       0.33752    0.03572    0.77630    1.000
    N1817    N        0.28763    0.09399    0.83762    1.000
    N1818    N        0.28746    0.19256    0.86874    1.000
    N1819    N        0.33339    0.21964    0.82047    1.000
    Si1820   Si       0.31088    0.18598    0.83499    1.000
    N1821    N        0.31594    0.07743    0.95078    1.000
    N1822    N        0.32475    0.05618    0.88433    1.000
    Si1823   Si       0.33399    0.08903    0.91281    1.000
    N1824    N        0.28987    0.01811    0.92944    1.000
    Si1825   Si       0.28671    0.04912    0.96017    1.000
    N1826    N        0.29040    0.02301    0.99523    1.000
    N1827    N        0.32691    0.13151    0.90515    1.000
    Si1828   Si       0.28550    0.25525    0.95065    1.000
    N1829    N        0.29615    0.18225    0.93921    1.000
    N1830    N        0.29778    0.13843    0.98653    1.000
    Si1831   Si       0.31985    0.14526    0.94751    1.000
    N1832    N        0.29193    0.24952    0.90781    1.000
    Si1833   Si       0.30619    0.20716    0.90462    1.000
    N1834    N        0.32401    0.25004    0.96972    1.000
    Si1835   Si       0.31145    0.30920    0.05331    1.000
    N1836    N        0.33016    0.33406    0.08110    1.000
    Si1837   Si       0.32205    0.35691    0.00551    1.000
    N1838    N        0.29081    0.33080    0.01994    1.000
    N1839    N        0.33572    0.27622    0.03608    1.000
    Si1840   Si       0.33920    0.37438    0.07585    1.000
    N1841    N        0.32244    0.38456    0.03736    1.000
    Si1842   Si       0.29039    0.41509    0.03308    1.000
    N1843    N        0.32595    0.47177    0.08336    1.000
    Si1844   Si       0.29962    0.44015    0.09916    1.000
    N1845    N        0.32402    0.40421    0.10604    1.000
    N1846    N        0.31618    0.44648    0.01993    1.000
    Si1847   Si       0.31583    0.48209    0.04382    1.000
    Si1848   Si       0.33583    0.31989    0.12206    1.000
    N1849    N        0.32601    0.27734    0.12533    1.000
    N1850    N        0.31443    0.34303    0.15184    1.000
    Si1851   Si       0.32258    0.34614    0.19530    1.000
    N1852    N        0.29396    0.28534    0.23336    1.000
    Si1853   Si       0.28559    0.44359    0.23317    1.000
    N1854    N        0.28782    0.50851    0.14617    1.000
    N1855    N        0.32763    0.43968    0.23211    1.000
    Si1856   Si       0.29564    0.46555    0.16024    1.000
    N1857    N        0.33186    0.44331    0.16038    1.000
    Si1858   Si       0.32599    0.30745    0.25692    1.000
    Si1859   Si       0.28873    0.35078    0.30843    1.000
    N1860    N        0.29218    0.33513    0.26723    1.000
    N1861    N        0.33484    0.27690    0.28511    1.000
    N1862    N        0.28751    0.31569    0.33373    1.000
    N1863    N        0.31854    0.38141    0.31293    1.000
    Si1864   Si       0.32722    0.49160    0.32508    1.000
    N1865    N        0.33539    0.44935    0.30840    1.000
    Si1866   Si       0.33584    0.41618    0.33767    1.000
    Si1867   Si       0.28903    0.32458    0.37583    1.000
    N1868    N        0.30735    0.37613    0.43153    1.000
    N1869    N        0.32816    0.31932    0.39543    1.000
    Si1870   Si       0.30321    0.28099    0.47304    1.000
    N1871    N        0.32602    0.31928    0.46727    1.000
    Si1872   Si       0.33536    0.34301    0.43337    1.000
    Si1873   Si       0.33740    0.45742    0.39678    1.000
    Si1874   Si       0.29135    0.39587    0.39665    1.000
    N1875    N        0.31933    0.42211    0.37591    1.000
    N1876    N        0.31907    0.48223    0.42745    1.000
    N1877    N        0.29236    0.42718    0.48016    1.000
    N1878    N        0.31159    0.34929    0.58773    1.000
    N1879    N        0.32001    0.37183    0.51769    1.000
    Si1880   Si       0.29685    0.37423    0.55606    1.000
    N1881    N        0.30377    0.27179    0.61204    1.000
    Si1882   Si       0.33718    0.33496    0.50461    1.000
    N1883    N        0.33590    0.30645    0.54042    1.000
    N1884    N        0.30157    0.41311    0.57239    1.000
    N1885    N        0.29269    0.49125    0.51228    1.000
    Si1886   Si       0.32923    0.40866    0.49746    1.000
    N1887    N        0.32400    0.30341    0.72891    1.000
    N1888    N        0.33339    0.36849    0.71313    1.000
    Si1889   Si       0.29630    0.36453    0.73595    1.000
    Si1890   Si       0.31770    0.34695    0.63048    1.000
    Si1891   Si       0.33524    0.26263    0.71716    1.000
    N1892    N        0.33567    0.26663    0.67565    1.000
    Si1893   Si       0.33954    0.27682    0.63574    1.000
    N1894    N        0.28353    0.32876    0.65042    1.000
    N1895    N        0.33966    0.38180    0.64966    1.000
    Si1896   Si       0.29366    0.43207    0.73617    1.000
    Si1897   Si       0.28872    0.45042    0.66208    1.000
    N1898    N        0.30965    0.43234    0.69494    1.000
    N1899    N        0.31298    0.47544    0.63644    1.000
    Si1900   Si       0.34067    0.40363    0.68803    1.000
    N1901    N        0.30008    0.33744    0.84187    1.000
    N1902    N        0.30697    0.35828    0.77768    1.000
    Si1903   Si       0.30608    0.32181    0.80012    1.000
    Si1904   Si       0.33137    0.36339    0.86019    1.000
    Si1905   Si       0.32682    0.26017    0.83319    1.000
    N1906    N        0.28129    0.26460    0.83935    1.000
    N1907    N        0.33912    0.29106    0.80207    1.000
    Si1908   Si       0.32051    0.39884    0.79724    1.000
    Si1909   Si       0.30747    0.45906    0.83564    1.000
    N1910    N        0.32786    0.42347    0.76263    1.000
    N1911    N        0.31969    0.50250    0.85842    1.000
    Si1912   Si       0.28980    0.49880    0.76828    1.000
    N1913    N        0.28549    0.48898    0.80996    1.000
    N1914    N        0.28716    0.41631    0.81791    1.000
    N1915    N        0.31505    0.33243    0.91182    1.000
    N1916    N        0.31167    0.37079    0.96669    1.000
    Si1917   Si       0.33236    0.36854    0.92702    1.000
    Si1918   Si       0.34032    0.46578    0.99027    1.000
    N1919    N        0.32410    0.39237    0.89218    1.000
    Si1920   Si       0.32905    0.50376    0.90155    1.000
    N1921    N        0.33912    0.46097    0.90732    1.000
    N1922    N        0.30576    0.48114    0.96616    1.000
    Si1923   Si       0.30508    0.43179    0.90330    1.000
    N1924    N        0.30856    0.54789    0.08823    1.000
    N1925    N        0.30447    0.60362    0.04485    1.000
    Si1926   Si       0.33177    0.57937    0.06790    1.000
    Si1927   Si       0.31819    0.64159    0.02483    1.000
    N1928    N        0.31994    0.73703    0.06436    1.000
    N1929    N        0.29755    0.67799    0.04029    1.000
    Si1930   Si       0.33935    0.69895    0.05067    1.000
    Si1931   Si       0.31677    0.53373    0.12853    1.000
    N1932    N        0.29895    0.59392    0.21255    1.000
    N1933    N        0.32722    0.56365    0.15828    1.000
    Si1934   Si       0.32363    0.62682    0.19949    1.000
    N1935    N        0.32125    0.63302    0.15680    1.000
    Si1936   Si       0.34021    0.56151    0.20226    1.000
    N1937    N        0.33352    0.54831    0.24479    1.000
    N1938    N        0.33970    0.74382    0.13015    1.000
    Si1939   Si       0.30650    0.73410    0.15815    1.000
    N1940    N        0.31564    0.65909    0.22843    1.000
    N1941    N        0.33028    0.73002    0.19299    1.000
    Si1942   Si       0.31092    0.70373    0.22195    1.000
    N1943    N        0.30455    0.69393    0.14135    1.000
    Si1944   Si       0.28694    0.65639    0.14651    1.000
    N1945    N        0.30501    0.60769    0.28137    1.000
    Si1946   Si       0.32247    0.60664    0.32240    1.000
    N1947    N        0.29159    0.59309    0.35233    1.000
    Si1948   Si       0.29980    0.57455    0.25314    1.000
    Si1949   Si       0.33091    0.67997    0.35703    1.000
    Si1950   Si       0.31748    0.71415    0.29701    1.000
    Si1951   Si       0.29578    0.64713    0.26545    1.000
    N1952    N        0.29577    0.67448    0.29868    1.000
    N1953    N        0.33000    0.72191    0.25685    1.000
    N1954    N        0.28888    0.74474    0.30961    1.000
    N1955    N        0.28942    0.67785    0.36807    1.000
    Si1956   Si       0.33931    0.61664    0.43157    1.000
    N1957    N        0.31402    0.58346    0.42059    1.000
    Si1958   Si       0.30464    0.56499    0.38272    1.000
    Si1959   Si       0.31606    0.57214    0.46288    1.000
    N1960    N        0.33627    0.53477    0.47781    1.000
    N1961    N        0.33853    0.60653    0.47312    1.000
    N1962    N        0.32083    0.65423    0.42122    1.000
    N1963    N        0.31501    0.71862    0.43891    1.000
    Si1964   Si       0.29886    0.74999    0.41200    1.000
    Si1965   Si       0.28543    0.70445    0.46634    1.000
    N1966    N        0.32048    0.75236    0.37478    1.000
    N1967    N        0.30447    0.54565    0.54931    1.000
    Si1968   Si       0.29813    0.61663    0.57277    1.000
    N1969    N        0.30745    0.62174    0.53005    1.000
    N1970    N        0.33143    0.59748    0.58917    1.000
    Si1971   Si       0.30185    0.53338    0.50788    1.000
    N1972    N        0.29887    0.64210    0.61065    1.000
    Si1973   Si       0.29281    0.67953    0.58576    1.000
    Si1974   Si       0.32146    0.69494    0.53003    1.000
    N1975    N        0.33453    0.67385    0.56474    1.000
    N1976    N        0.28428    0.71298    0.55396    1.000
    N1977    N        0.32208    0.75184    0.61876    1.000
    N1978    N        0.29887    0.67658    0.49791    1.000
    N1979    N        0.32160    0.51575    0.74002    1.000
    Si1980   Si       0.33617    0.62122    0.62581    1.000
    N1981    N        0.30129    0.58584    0.71905    1.000
    N1982    N        0.32572    0.55291    0.65989    1.000
    N1983    N        0.31580    0.62113    0.66466    1.000
    Si1984   Si       0.33224    0.58752    0.68737    1.000
    Si1985   Si       0.28880    0.54496    0.72768    1.000
    Si1986   Si       0.28902    0.62987    0.71688    1.000
    Si1987   Si       0.28300    0.55262    0.65374    1.000
    N1988    N        0.32086    0.65757    0.72391    1.000
    N1989    N        0.33865    0.72746    0.72912    1.000
    Si1990   Si       0.30919    0.69823    0.71111    1.000
    N1991    N        0.32266    0.70028    0.67064    1.000
    Si1992   Si       0.29819    0.72630    0.64487    1.000
    N1993    N        0.31010    0.55615    0.82914    1.000
    Si1994   Si       0.31745    0.59941    0.83332    1.000
    N1995    N        0.30961    0.62429    0.79893    1.000
    N1996    N        0.29271    0.61569    0.86669    1.000
    Si1997   Si       0.28604    0.52098    0.83913    1.000
    N1998    N        0.32947    0.69114    0.78563    1.000
    Si1999   Si       0.29882    0.70965    0.81202    1.000
    N2000    N        0.31623    0.70736    0.85115    1.000
    N2001    N        0.28643    0.75003    0.80393    1.000
    Si2002   Si       0.33497    0.59892    0.96738    1.000
    N2003    N        0.29625    0.52542    0.91993    1.000
    N2004    N        0.32676    0.55573    0.97620    1.000
    Si2005   Si       0.29774    0.52486    0.96273    1.000
    N2006    N        0.33207    0.60056    0.92364    1.000
    Si2007   Si       0.30637    0.62936    0.90709    1.000
    N2008    N        0.30747    0.63044    0.98379    1.000
    Si2009   Si       0.31146    0.69993    0.93017    1.000
    Si2010   Si       0.31340    0.74348    0.87497    1.000
    N2011    N        0.32891    0.66739    0.90764    1.000
    N2012    N        0.33421    0.73295    0.91177    1.000
    N2013    N        0.31559    0.70675    0.97290    1.000
    N2014    N        0.30895    0.85979    0.04294    1.000
    Si2015   Si       0.31479    0.81910    0.05396    1.000
    N2016    N        0.32198    0.80855    0.09602    1.000
    N2017    N        0.29962    0.87355    0.11420    1.000
    Si2018   Si       0.30265    0.86577    0.99991    1.000
    Si2019   Si       0.33912    0.76585    0.09242    1.000
    Si2020   Si       0.30826    0.89448    0.07056    1.000
    N2021    N        0.31902    0.97893    0.03795    1.000
    N2022    N        0.30201    0.98107    0.09913    1.000
    Si2023   Si       0.28410    0.96704    0.06081    1.000
    Si2024   Si       0.33707    0.00677    0.08783    1.000
    Si2025   Si       0.29682    0.82989    0.12260    1.000
    N2026    N        0.29316    0.82056    0.16676    1.000
    Si2027   Si       0.31347    0.84558    0.19570    1.000
    N2028    N        0.31643    0.83941    0.23727    1.000
    Si2029   Si       0.32663    0.89008    0.14609    1.000
    N2030    N        0.29871    0.88637    0.18167    1.000
    Si2031   Si       0.28520    0.94024    0.16651    1.000
    N2032    N        0.32730    0.93323    0.15320    1.000
    N2033    N        0.28353    0.98473    0.17275    1.000
    Si2034   Si       0.28136    0.00139    0.13321    1.000
    N2035    N        0.30687    0.81153    0.33385    1.000
    Si2036   Si       0.29863    0.77075    0.34135    1.000
    N2037    N        0.30567    0.91967    0.35206    1.000
    N2038    N        0.32934    0.98964    0.36031    1.000
    N2039    N        0.32595    0.96521    0.29451    1.000
    Si2040   Si       0.33209    0.95247    0.33576    1.000
    Si2041   Si       0.31261    0.00562    0.28131    1.000
    Si2042   Si       0.28569    0.00067    0.35440    1.000
    Si2043   Si       0.29397    0.82151    0.44021    1.000
    N2044    N        0.31934    0.85810    0.43334    1.000
    N2045    N        0.31613    0.78482    0.43358    1.000
    Si2046   Si       0.31044    0.87117    0.47346    1.000
    N2047    N        0.29393    0.83107    0.48251    1.000
    Si2048   Si       0.33428    0.99058    0.40310    1.000
    Si2049   Si       0.28479    0.93688    0.38748    1.000
    N2050    N        0.30147    0.96485    0.41780    1.000
    N2051    N        0.29782    0.97670    0.49342    1.000
    Si2052   Si       0.30963    0.81029    0.51822    1.000
    N2053    N        0.30960    0.82086    0.60377    1.000
    Si2054   Si       0.30274    0.77823    0.59206    1.000
    N2055    N        0.32379    0.84562    0.53907    1.000
    N2056    N        0.31661    0.77227    0.55138    1.000
    Si2057   Si       0.33781    0.84416    0.58040    1.000
    N2058    N        0.32997    0.92264    0.53029    1.000
    Si2059   Si       0.32029    0.98999    0.58909    1.000
    N2060    N        0.31901    0.94716    0.59309    1.000
    Si2061   Si       0.30582    0.91581    0.56611    1.000
    Si2062   Si       0.33506    0.96000    0.50816    1.000
    N2063    N        0.29752    0.00251    0.55548    1.000
    N2064    N        0.33900    0.88709    0.58193    1.000
    N2065    N        0.29849    0.78350    0.72075    1.000
    Si2066   Si       0.33860    0.76969    0.71643    1.000
    Si2067   Si       0.29544    0.97787    0.65956    1.000
    N2068    N        0.30025    0.88068    0.68110    1.000
    Si2069   Si       0.31423    0.98758    0.71979    1.000
    N2070    N        0.32916    0.96179    0.68704    1.000
    N2071    N        0.30389    0.00315    0.62738    1.000
    N2072    N        0.29362    0.95573    0.74658    1.000
    Si2073   Si       0.31953    0.77930    0.80940    1.000
    Si2074   Si       0.29926    0.84919    0.78467    1.000
    N2075    N        0.33203    0.77826    0.85255    1.000
    N2076    N        0.33138    0.81815    0.79338    1.000
    N2077    N        0.28871    0.87085    0.81915    1.000
    N2078    N        0.30835    0.87365    0.75234    1.000
    Si2079   Si       0.31692    0.88104    0.85104    1.000
    N2080    N        0.31920    0.84603    0.87421    1.000
    Si2081   Si       0.32490    0.95537    0.85242    1.000
    N2082    N        0.30402    0.96912    0.81684    1.000
    Si2083   Si       0.32279    0.96045    0.77818    1.000
    N2084    N        0.30850    0.91990    0.86940    1.000
    N2085    N        0.33569    0.99786    0.75916    1.000
    Si2086   Si       0.28527    0.00863    0.82224    1.000
    Si2087   Si       0.30182    0.80597    0.87623    1.000
    N2088    N        0.32769    0.80477    0.91870    1.000
    N2089    N        0.31216    0.82807    0.98051    1.000
    Si2090   Si       0.29447    0.81035    0.94637    1.000
    Si2091   Si       0.30500    0.97961    0.91981    1.000
    N2092    N        0.33664    0.96306    0.94675    1.000
    Si2093   Si       0.32657    0.93917    0.98331    1.000
    N2094    N        0.32561    0.98585    0.88231    1.000
    N2095    N        0.32887    0.89484    0.98166    1.000
    Si2096   Si       0.37272    0.06658    0.10344    1.000
    Si2097   Si       0.36956    0.07102    0.02512    1.000
    N2098    N        0.38520    0.05454    0.06270    1.000
    N2099    N        0.36120    0.03314    0.00454    1.000
    Si2100   Si       0.36797    0.13055    0.00150    1.000
    N2101    N        0.35925    0.02831    0.11846    1.000
    N2102    N        0.33971    0.10149    0.02510    1.000
    N2103    N        0.38321    0.16623    0.02166    1.000
    N2104    N        0.38133    0.22995    0.02908    1.000
    N2105    N        0.36295    0.19395    0.07834    1.000
    Si2106   Si       0.35745    0.19448    0.03733    1.000
    N2107    N        0.34977    0.07508    0.20338    1.000
    N2108    N        0.37506    0.02633    0.23445    1.000
    Si2109   Si       0.35141    0.11856    0.20790    1.000
    Si2110   Si       0.39018    0.05408    0.20483    1.000
    Si2111   Si       0.36719    0.17642    0.15734    1.000
    N2112    N        0.34687    0.20864    0.13877    1.000
    N2113    N        0.39023    0.13517    0.22117    1.000
    Si2114   Si       0.38989    0.17678    0.22833    1.000
    N2115    N        0.34877    0.14017    0.17044    1.000
    N2116    N        0.39597    0.16344    0.12702    1.000
    N2117    N        0.38840    0.19618    0.18982    1.000
    Si2118   Si       0.34220    0.24971    0.15334    1.000
    N2119    N        0.37079    0.09886    0.29323    1.000
    Si2120   Si       0.38393    0.02429    0.27716    1.000
    N2121    N        0.38622    0.02675    0.36143    1.000
    N2122    N        0.34691    0.02983    0.29858    1.000
    Si2123   Si       0.34702    0.02351    0.34263    1.000
    Si2124   Si       0.37960    0.06995    0.36659    1.000
    N2125    N        0.34160    0.06728    0.34628    1.000
    Si2126   Si       0.36214    0.19908    0.29306    1.000
    N2127    N        0.38574    0.23512    0.29216    1.000
    N2128    N        0.38907    0.17029    0.31246    1.000
    N2129    N        0.35440    0.18237    0.25290    1.000
    Si2130   Si       0.39542    0.17113    0.35505    1.000
    N2131    N        0.37678    0.02340    0.47137    1.000
    N2132    N        0.37341    0.08637    0.40729    1.000
    N2133    N        0.36057    0.08304    0.47391    1.000
    Si2134   Si       0.36538    0.05489    0.43973    1.000
    Si2135   Si       0.35957    0.12472    0.48236    1.000
    Si2136   Si       0.38595    0.12751    0.41332    1.000
    N2137    N        0.36780    0.15206    0.38232    1.000
    Si2138   Si       0.39455    0.18745    0.46337    1.000
    N2139    N        0.38348    0.14546    0.45398    1.000
    N2140    N        0.37230    0.21653    0.43998    1.000
    N2141    N        0.36368    0.11559    0.59156    1.000
    Si2142   Si       0.35066    0.10516    0.55149    1.000
    Si2143   Si       0.37512    0.05381    0.50245    1.000
    N2144    N        0.34652    0.06361    0.53737    1.000
    N2145    N        0.37528    0.12863    0.52364    1.000
    Si2146   Si       0.35266    0.21509    0.59966    1.000
    Si2147   Si       0.39225    0.14655    0.59769    1.000
    N2148    N        0.37217    0.17866    0.61937    1.000
    N2149    N        0.36855    0.24865    0.62126    1.000
    Si2150   Si       0.37331    0.03461    0.61940    1.000
    Si2151   Si       0.37515    0.03836    0.69634    1.000
    Si2152   Si       0.36263    0.10757    0.69598    1.000
    N2153    N        0.38708    0.01897    0.65693    1.000
    N2154    N        0.39130    0.07718    0.69795    1.000
    N2155    N        0.34253    0.06620    0.63190    1.000
    N2156    N        0.39872    0.01043    0.71931    1.000
    Si2157   Si       0.34199    0.10955    0.62960    1.000
    N2158    N        0.36507    0.12783    0.65877    1.000
    N2159    N        0.36973    0.13074    0.73128    1.000
    N2160    N        0.35454    0.19203    0.69435    1.000
    Si2161   Si       0.37610    0.16996    0.66204    1.000
    N2162    N        0.36058    0.08792    0.83484    1.000
    N2163    N        0.38017    0.04277    0.78011    1.000
    Si2164   Si       0.38584    0.05479    0.82022    1.000
    N2165    N        0.38259    0.02052    0.84677    1.000
    Si2166   Si       0.35845    0.12435    0.81397    1.000
    N2167    N        0.39692    0.13112    0.79572    1.000
    Si2168   Si       0.36412    0.19291    0.80681    1.000
    N2169    N        0.36272    0.18320    0.76527    1.000
    Si2170   Si       0.39634    0.15432    0.75778    1.000
    N2171    N        0.34866    0.16041    0.83698    1.000
    Si2172   Si       0.35286    0.02039    0.88164    1.000
    N2173    N        0.37753    0.08973    0.91691    1.000
    Si2174   Si       0.39313    0.12795    0.93062    1.000
    N2175    N        0.37860    0.01499    0.91536    1.000
    Si2176   Si       0.37270    0.23662    0.89301    1.000
    N2177    N        0.34667    0.20215    0.89581    1.000
    Si2178   Si       0.35396    0.15884    0.88250    1.000
    N2179    N        0.39433    0.15634    0.89606    1.000
    N2180    N        0.36312    0.14107    0.95995    1.000
    N2181    N        0.38543    0.23464    0.93721    1.000
    Si2182   Si       0.37978    0.27450    0.02799    1.000
    Si2183   Si       0.39648    0.36288    0.12045    1.000
    N2184    N        0.38267    0.38196    0.08290    1.000
    N2185    N        0.36220    0.33762    0.99921    1.000
    N2186    N        0.38125    0.44548    0.10288    1.000
    Si2187   Si       0.36503    0.48690    0.09678    1.000
    N2188    N        0.34461    0.50128    0.01708    1.000
    N2189    N        0.39325    0.50897    0.07157    1.000
    N2190    N        0.34726    0.31689    0.21643    1.000
    N2191    N        0.37820    0.32403    0.12992    1.000
    Si2192   Si       0.37045    0.36511    0.23987    1.000
    N2193    N        0.37972    0.26588    0.17045    1.000
    Si2194   Si       0.38310    0.29410    0.20649    1.000
    N2195    N        0.34701    0.38015    0.20615    1.000
    Si2196   Si       0.35645    0.42239    0.12944    1.000
    Si2197   Si       0.34709    0.42413    0.19661    1.000
    N2198    N        0.38757    0.39697    0.14778    1.000
    N2199    N        0.38900    0.43861    0.20423    1.000
    N2200    N        0.35541    0.33974    0.27286    1.000
    Si2201   Si       0.37076    0.26979    0.31028    1.000
    N2202    N        0.35420    0.26812    0.34941    1.000
    Si2203   Si       0.35822    0.37338    0.29974    1.000
    N2204    N        0.37601    0.39348    0.33541    1.000
    N2205    N        0.37049    0.40119    0.26709    1.000
    Si2206   Si       0.35215    0.44212    0.26620    1.000
    N2207    N        0.37447    0.47998    0.25725    1.000
    N2208    N        0.34331    0.48690    0.36663    1.000
    N2209    N        0.39769    0.32405    0.36984    1.000
    Si2210   Si       0.39117    0.36585    0.47466    1.000
    Si2211   Si       0.36431    0.29604    0.38223    1.000
    N2212    N        0.37864    0.35250    0.43347    1.000
    N2213    N        0.39019    0.27101    0.40597    1.000
    N2214    N        0.36443    0.40081    0.47664    1.000
    N2215    N        0.37521    0.43827    0.41111    1.000
    Si2216   Si       0.34950    0.50151    0.45062    1.000
    Si2217   Si       0.38181    0.43426    0.45397    1.000
    N2218    N        0.37063    0.47160    0.47312    1.000
    N2219    N        0.38754    0.33459    0.56881    1.000
    N2220    N        0.38558    0.26638    0.52626    1.000
    N2221    N        0.38147    0.33657    0.50318    1.000
    Si2222   Si       0.34619    0.32449    0.57864    1.000
    Si2223   Si       0.39489    0.30765    0.53429    1.000
    Si2224   Si       0.34200    0.26481    0.53287    1.000
    N2225    N        0.37111    0.40042    0.58382    1.000
    Si2226   Si       0.37728    0.46679    0.51580    1.000
    N2227    N        0.35604    0.46956    0.58385    1.000
    N2228    N        0.34527    0.43706    0.52704    1.000
    Si2229   Si       0.38057    0.50435    0.57320    1.000
    Si2230   Si       0.34291    0.43114    0.56857    1.000
    N2231    N        0.37739    0.50922    0.52966    1.000
    N2232    N        0.35241    0.31741    0.62548    1.000
    Si2233   Si       0.35580    0.33227    0.71833    1.000
    Si2234   Si       0.39239    0.32935    0.63965    1.000
    N2235    N        0.38575    0.33039    0.68659    1.000
    N2236    N        0.37430    0.26326    0.73689    1.000
    Si2237   Si       0.39071    0.45534    0.68087    1.000
    Si2238   Si       0.35449    0.47441    0.62748    1.000
    Si2239   Si       0.37212    0.40035    0.62587    1.000
    N2240    N        0.37087    0.43977    0.64605    1.000
    N2241    N        0.37940    0.49162    0.70325    1.000
    N2242    N        0.37977    0.42192    0.70897    1.000
    Si2243   Si       0.37198    0.28922    0.77457    1.000
    Si2244   Si       0.38831    0.35663    0.83605    1.000
    N2245    N        0.37752    0.33081    0.75772    1.000
    N2246    N        0.36421    0.33516    0.86496    1.000
    N2247    N        0.35245    0.38256    0.82482    1.000
    N2248    N        0.37359    0.47293    0.76509    1.000
    Si2249   Si       0.38105    0.41749    0.82183    1.000
    Si2250   Si       0.37658    0.47872    0.80915    1.000
    Si2251   Si       0.36911    0.43066    0.75070    1.000
    N2252    N        0.34839    0.44931    0.82484    1.000
    N2253    N        0.39541    0.40657    0.77631    1.000
    N2254    N        0.34855    0.26681    0.87046    1.000
    N2255    N        0.36427    0.29904    0.93278    1.000
    N2256    N        0.37350    0.36229    0.93663    1.000
    Si2257   Si       0.37928    0.32827    0.96310    1.000
    N2258    N        0.39185    0.28093    0.98751    1.000
    Si2259   Si       0.34889    0.30564    0.89349    1.000
    Si2260   Si       0.36327    0.26599    0.95984    1.000
    N2261    N        0.39093    0.49230    0.92862    1.000
    Si2262   Si       0.37496    0.45273    0.92937    1.000
    N2263    N        0.37289    0.44470    0.97267    1.000
    N2264    N        0.36452    0.56176    0.04301    1.000
    Si2265   Si       0.35811    0.54046    0.00531    1.000
    N2266    N        0.34994    0.60333    0.09824    1.000
    Si2267   Si       0.39485    0.60239    0.10322    1.000
    Si2268   Si       0.39077    0.63257    0.01483    1.000
    N2269    N        0.36804    0.71881    0.02024    1.000
    N2270    N        0.35924    0.65607    0.03591    1.000
    N2271    N        0.35782    0.68933    0.08728    1.000
    Si2272   Si       0.38951    0.65983    0.07502    1.000
    N2273    N        0.40073    0.64525    0.11462    1.000
    Si2274   Si       0.39874    0.59949    0.18688    1.000
    N2275    N        0.35677    0.51470    0.12878    1.000
    N2276    N        0.37512    0.53598    0.19246    1.000
    N2277    N        0.38812    0.58288    0.14464    1.000
    N2278    N        0.36025    0.60283    0.20343    1.000
    Si2279   Si       0.38531    0.53828    0.15076    1.000
    Si2280   Si       0.34289    0.59952    0.14112    1.000
    N2281    N        0.37916    0.69767    0.15620    1.000
    N2282    N        0.39265    0.73644    0.21613    1.000
    Si2283   Si       0.34774    0.70072    0.12644    1.000
    Si2284   Si       0.37166    0.73597    0.17431    1.000
    N2285    N        0.36264    0.58973    0.31307    1.000
    Si2286   Si       0.36861    0.55034    0.33110    1.000
    Si2287   Si       0.36520    0.52303    0.26490    1.000
    N2288    N        0.35158    0.52080    0.30473    1.000
    Si2289   Si       0.38212    0.62868    0.32798    1.000
    N2290    N        0.39799    0.52677    0.35384    1.000
    N2291    N        0.34326    0.55445    0.36795    1.000
    Si2292   Si       0.38827    0.70468    0.31435    1.000
    N2293    N        0.39014    0.73386    0.28261    1.000
    N2294    N        0.34650    0.71023    0.32942    1.000
    N2295    N        0.34315    0.64123    0.34136    1.000
    Si2296   Si       0.36403    0.74434    0.24831    1.000
    Si2297   Si       0.36448    0.73608    0.36578    1.000
    Si2298   Si       0.36686    0.51964    0.38342    1.000
    N2299    N        0.37985    0.61909    0.42143    1.000
    N2300    N        0.37872    0.51804    0.42393    1.000
    N2301    N        0.38009    0.74771    0.45542    1.000
    N2302    N        0.35683    0.69806    0.38693    1.000
    N2303    N        0.37483    0.68257    0.45626    1.000
    Si2304   Si       0.34576    0.69050    0.42651    1.000
    Si2305   Si       0.38396    0.71476    0.48275    1.000
    Si2306   Si       0.40039    0.64790    0.44683    1.000
    N2307    N        0.35860    0.57452    0.52647    1.000
    N2308    N        0.36387    0.54135    0.59048    1.000
    Si2309   Si       0.37133    0.54177    0.50223    1.000
    Si2310   Si       0.34824    0.61608    0.51341    1.000
    Si2311   Si       0.34103    0.56517    0.56357    1.000
    N2312    N        0.38108    0.64117    0.52704    1.000
    Si2313   Si       0.37493    0.65947    0.57356    1.000
    N2314    N        0.35117    0.71867    0.51301    1.000
    Si2315   Si       0.40085    0.62638    0.62746    1.000
    Si2316   Si       0.36048    0.55154    0.63226    1.000
    N2317    N        0.37202    0.59371    0.63812    1.000
    N2318    N        0.36458    0.60125    0.71256    1.000
    Si2319   Si       0.39544    0.57633    0.72747    1.000
    Si2320   Si       0.36475    0.50858    0.74083    1.000
    N2321    N        0.37411    0.50900    0.64210    1.000
    Si2322   Si       0.35954    0.68174    0.65826    1.000
    N2323    N        0.36309    0.65554    0.62178    1.000
    N2324    N        0.38427    0.71784    0.64697    1.000
    Si2325   Si       0.36057    0.64327    0.72254    1.000
    N2326    N        0.38391    0.66402    0.69198    1.000
    Si2327   Si       0.36264    0.75525    0.63866    1.000
    N2328    N        0.37469    0.52210    0.81734    1.000
    N2329    N        0.35688    0.58762    0.85516    1.000
    Si2330   Si       0.38696    0.61371    0.83839    1.000
    N2331    N        0.38663    0.54340    0.75539    1.000
    Si2332   Si       0.34709    0.53802    0.84693    1.000
    N2333    N        0.40296    0.59244    0.80512    1.000
    Si2334   Si       0.34224    0.65216    0.79508    1.000
    N2335    N        0.37515    0.64445    0.76355    1.000
    N2336    N        0.35669    0.64868    0.83582    1.000
    Si2337   Si       0.35819    0.71858    0.76584    1.000
    Si2338   Si       0.34713    0.67937    0.86644    1.000
    N2339    N        0.39814    0.75917    0.83683    1.000
    Si2340   Si       0.40034    0.52962    0.90774    1.000
    Si2341   Si       0.35737    0.57737    0.89861    1.000
    N2342    N        0.37357    0.60853    0.98389    1.000
    N2343    N        0.35976    0.53458    0.89035    1.000
    N2344    N        0.39561    0.57336    0.92092    1.000
    N2345    N        0.39656    0.53034    0.99052    1.000
    Si2346   Si       0.35256    0.73002    0.98163    1.000
    N2347    N        0.38441    0.72014    0.95242    1.000
    N2348    N        0.38455    0.70197    0.87235    1.000
    Si2349   Si       0.37618    0.72088    0.90904    1.000
    N2350    N        0.38132    0.77468    0.08608    1.000
    Si2351   Si       0.38379    0.80866    0.05819    1.000
    N2352    N        0.37944    0.84948    0.07264    1.000
    N2353    N        0.34872    0.80289    0.03415    1.000
    Si2354   Si       0.37626    0.89048    0.08591    1.000
    N2355    N        0.37264    0.98697    0.06883    1.000
    N2356    N        0.36309    0.93995    0.00920    1.000
    Si2357   Si       0.35443    0.95302    0.04732    1.000
    N2358    N        0.34682    0.91613    0.06912    1.000
    N2359    N        0.34946    0.85462    0.17429    1.000
    Si2360   Si       0.38506    0.87904    0.16807    1.000
    N2361    N        0.39648    0.77019    0.15786    1.000
    N2362    N        0.38766    0.85067    0.24504    1.000
    Si2363   Si       0.35198    0.99311    0.21875    1.000
    Si2364   Si       0.39218    0.92729    0.23101    1.000
    N2365    N        0.39425    0.96404    0.13289    1.000
    N2366    N        0.36117    0.98849    0.17786    1.000
    N2367    N        0.36208    0.95731    0.23950    1.000
    N2368    N        0.38161    0.91754    0.19063    1.000
    Si2369   Si       0.36714    0.94766    0.16201    1.000
    N2370    N        0.37090    0.89156    0.12848    1.000
    Si2371   Si       0.38608    0.00692    0.14512    1.000
    N2372    N        0.37327    0.79062    0.33117    1.000
    Si2373   Si       0.39101    0.77727    0.29373    1.000
    N2374    N        0.36127    0.78762    0.26034    1.000
    N2375    N        0.35703    0.84955    0.29884    1.000
    Si2376   Si       0.39326    0.87044    0.28388    1.000
    Si2377   Si       0.35169    0.83056    0.25920    1.000
    Si2378   Si       0.34728    0.82662    0.33452    1.000
    Si2379   Si       0.39028    0.80179    0.37144    1.000
    N2380    N        0.39932    0.98426    0.28191    1.000
    N2381    N        0.37310    0.94066    0.33041    1.000
    Si2382   Si       0.36927    0.95027    0.28425    1.000
    N2383    N        0.38662    0.91087    0.27177    1.000
    N2384    N        0.36226    0.83498    0.37646    1.000
    Si2385   Si       0.35510    0.78582    0.45585    1.000
    N2386    N        0.37585    0.82122    0.44124    1.000
    Si2387   Si       0.35883    0.85318    0.41641    1.000
    N2388    N        0.38331    0.76556    0.39261    1.000
    N2389    N        0.35005    0.88110    0.48881    1.000
    N2390    N        0.34561    0.79147    0.49858    1.000
    Si2391   Si       0.37180    0.91101    0.46521    1.000
    Si2392   Si       0.38248    0.98351    0.45437    1.000
    N2393    N        0.35831    0.95175    0.47139    1.000
    N2394    N        0.38033    0.88968    0.42853    1.000
    N2395    N        0.37730    0.98111    0.41102    1.000
    N2396    N        0.37648    0.82666    0.58253    1.000
    N2397    N        0.39475    0.87594    0.53839    1.000
    N2398    N        0.38980    0.76294    0.54782    1.000
    Si2399   Si       0.35193    0.75990    0.52764    1.000
    Si2400   Si       0.34981    0.88252    0.53246    1.000
    N2401    N        0.39344    0.77198    0.61631    1.000
    N2402    N        0.38917    0.94051    0.58741    1.000
    N2403    N        0.36488    0.97754    0.53316    1.000
    Si2404   Si       0.38552    0.97902    0.56928    1.000
    Si2405   Si       0.35360    0.92119    0.60566    1.000
    N2406    N        0.35940    0.00561    0.59226    1.000
    Si2407   Si       0.38837    0.80602    0.69419    1.000
    N2408    N        0.37238    0.84546    0.68102    1.000
    N2409    N        0.35619    0.77435    0.67723    1.000
    N2410    N        0.36679    0.79972    0.73349    1.000
    Si2411   Si       0.34315    0.87582    0.67357    1.000
    Si2412   Si       0.40228    0.87051    0.70418    1.000
    Si2413   Si       0.36141    0.93571    0.68059    1.000
    N2414    N        0.35482    0.90962    0.64597    1.000
    N2415    N        0.36246    0.89989    0.70838    1.000
    Si2416   Si       0.36771    0.82144    0.77085    1.000
    N2417    N        0.37720    0.86345    0.76361    1.000
    Si2418   Si       0.37467    0.78276    0.86111    1.000
    Si2419   Si       0.39436    0.76312    0.79308    1.000
    N2420    N        0.35093    0.75724    0.78894    1.000
    N2421    N        0.35518    0.88723    0.83403    1.000
    N2422    N        0.36444    0.95477    0.83362    1.000
    Si2423   Si       0.37105    0.91833    0.81091    1.000
    Si2424   Si       0.39437    0.98382    0.82868    1.000
    N2425    N        0.34805    0.92559    0.77594    1.000
    Si2426   Si       0.34701    0.89144    0.74899    1.000
    N2427    N        0.38538    0.82349    0.87329    1.000
    Si2428   Si       0.35151    0.77152    0.93117    1.000
    N2429    N        0.38025    0.83871    0.98330    1.000
    Si2430   Si       0.36491    0.87612    0.96604    1.000
    N2431    N        0.34857    0.77195    0.97416    1.000
    N2432    N        0.36418    0.87190    0.92244    1.000
    Si2433   Si       0.35287    0.83796    0.89848    1.000
    N2434    N        0.38467    0.76514    0.90231    1.000
    Si2435   Si       0.34991    0.80976    0.99266    1.000
    N2436    N        0.39895    0.97870    0.96921    1.000
    N2437    N        0.39355    0.94658    0.90383    1.000
    N2438    N        0.39641    0.90756    0.96096    1.000
    Si2439   Si       0.39678    0.90393    0.91608    1.000
    Si2440   Si       0.37661    0.97625    0.93168    1.000
    Si2441   Si       0.40075    0.94054    0.98843    1.000
    N2442    N        0.42471    0.02382    0.10962    1.000
    Si2443   Si       0.40717    0.01414    0.06836    1.000
    N2444    N        0.39826    0.09610    0.00506    1.000
    N2445    N        0.45401    0.14003    0.11073    1.000
    Si2446   Si       0.41278    0.20073    0.02354    1.000
    N2447    N        0.42964    0.19623    0.06307    1.000
    Si2448   Si       0.40181    0.19508    0.09669    1.000
    N2449    N        0.40319    0.08767    0.12418    1.000
    N2450    N        0.43542    0.12327    0.17012    1.000
    Si2451   Si       0.43171    0.05802    0.13799    1.000
    Si2452   Si       0.41763    0.12733    0.12965    1.000
    Si2453   Si       0.43034    0.11954    0.21334    1.000
    N2454    N        0.42356    0.07750    0.22186    1.000
    N2455    N        0.40673    0.03718    0.16938    1.000
    N2456    N        0.45424    0.01441    0.23739    1.000
    N2457    N        0.41390    0.22526    0.12520    1.000
    N2458    N        0.44726    0.23720    0.17781    1.000
    Si2459   Si       0.45353    0.24110    0.13398    1.000
    Si2460   Si       0.40520    0.22962    0.16975    1.000
    N2461    N        0.42253    0.20157    0.24511    1.000
    N2462    N        0.41780    0.05099    0.28584    1.000
    N2463    N        0.44242    0.11633    0.29150    1.000
    N2464    N        0.41419    0.08983    0.34748    1.000
    Si2465   Si       0.41152    0.08990    0.30525    1.000
    Si2466   Si       0.44672    0.05480    0.25175    1.000
    Si2467   Si       0.44663    0.11616    0.36691    1.000
    Si2468   Si       0.43119    0.15630    0.30512    1.000
    N2469    N        0.43774    0.15551    0.34973    1.000
    Si2470   Si       0.41531    0.24138    0.26159    1.000
    N2471    N        0.43352    0.02528    0.41379    1.000
    N2472    N        0.43260    0.07762    0.46169    1.000
    N2473    N        0.43136    0.12229    0.40667    1.000
    Si2474   Si       0.45493    0.10448    0.43717    1.000
    Si2475   Si       0.45296    0.18995    0.37099    1.000
    N2476    N        0.43095    0.19975    0.44136    1.000
    N2477    N        0.45182    0.25115    0.41117    1.000
    Si2478   Si       0.40702    0.22795    0.41339    1.000
    N2479    N        0.41095    0.20700    0.37486    1.000
    N2480    N        0.43618    0.25400    0.48426    1.000
    Si2481   Si       0.42338    0.03930    0.56156    1.000
    N2482    N        0.41416    0.05452    0.52179    1.000
    Si2483   Si       0.43515    0.07927    0.60678    1.000
    N2484    N        0.43038    0.12198    0.59771    1.000
    N2485    N        0.40042    0.05564    0.59501    1.000
    Si2486   Si       0.45135    0.06112    0.49648    1.000
    Si2487   Si       0.40615    0.16054    0.52905    1.000
    Si2488   Si       0.41617    0.23604    0.51754    1.000
    Si2489   Si       0.43552    0.20397    0.58573    1.000
    N2490    N        0.44611    0.22690    0.55059    1.000
    N2491    N        0.44741    0.14290    0.53025    1.000
    N2492    N        0.40770    0.17518    0.56840    1.000
    N2493    N        0.40092    0.19574    0.50508    1.000
    N2494    N        0.44386    0.06899    0.64832    1.000
    Si2495   Si       0.43312    0.08525    0.68813    1.000
    N2496    N        0.45494    0.12380    0.68619    1.000
    N2497    N        0.43148    0.22522    0.62315    1.000
    N2498    N        0.41148    0.24629    0.67940    1.000
    Si2499   Si       0.44537    0.16293    0.70056    1.000
    Si2500   Si       0.40717    0.25836    0.63735    1.000
    Si2501   Si       0.43885    0.21420    0.66434    1.000
    N2502    N        0.41669    0.17775    0.67268    1.000
    N2503    N        0.43636    0.16452    0.74408    1.000
    N2504    N        0.42466    0.07212    0.82056    1.000
    Si2505   Si       0.43243    0.10676    0.79640    1.000
    N2506    N        0.43986    0.08982    0.75911    1.000
    N2507    N        0.45036    0.01951    0.76329    1.000
    Si2508   Si       0.45035    0.06649    0.85344    1.000
    Si2509   Si       0.40621    0.01333    0.76055    1.000
    N2510    N        0.45490    0.10827    0.86503    1.000
    Si2511   Si       0.42756    0.23809    0.79269    1.000
    Si2512   Si       0.44428    0.25282    0.85940    1.000
    N2513    N        0.43712    0.23715    0.75000    1.000
    N2514    N        0.40377    0.20667    0.80930    1.000
    Si2515   Si       0.40016    0.01774    0.98991    1.000
    N2516    N        0.42184    0.04107    0.96188    1.000
    Si2517   Si       0.42142    0.02860    0.91991    1.000
    Si2518   Si       0.42853    0.08194    0.97816    1.000
    N2519    N        0.43732    0.05728    0.89386    1.000
    N2520    N        0.43362    0.11395    0.94401    1.000
    Si2521   Si       0.45222    0.09673    0.90798    1.000
    N2522    N        0.44655    0.19498    0.92833    1.000
    N2523    N        0.41259    0.22973    0.87677    1.000
    N2524    N        0.43656    0.21528    0.99142    1.000
    Si2525   Si       0.42559    0.18657    0.88826    1.000
    Si2526   Si       0.42623    0.22540    0.94978    1.000
    Si2527   Si       0.44487    0.30538    0.04360    1.000
    N2528    N        0.40597    0.29336    0.05625    1.000
    N2529    N        0.44765    0.34470    0.02480    1.000
    N2530    N        0.43884    0.35390    0.11407    1.000
    N2531    N        0.45948    0.28106    0.01133    1.000
    Si2532   Si       0.40890    0.43187    0.99830    1.000
    Si2533   Si       0.40692    0.41783    0.08101    1.000
    N2534    N        0.45142    0.41629    0.09305    1.000
    N2535    N        0.41609    0.43207    0.04151    1.000
    Si2536   Si       0.45903    0.43012    0.04998    1.000
    Si2537   Si       0.40718    0.29560    0.14902    1.000
    N2538    N        0.44266    0.28380    0.12728    1.000
    N2539    N        0.41622    0.31655    0.18560    1.000
    Si2540   Si       0.43846    0.34736    0.20681    1.000
    N2541    N        0.41133    0.34816    0.24242    1.000
    N2542    N        0.40471    0.27705    0.23999    1.000
    N2543    N        0.42580    0.49630    0.20762    1.000
    Si2544   Si       0.43923    0.49167    0.16775    1.000
    Si2545   Si       0.40736    0.46632    0.23275    1.000
    N2546    N        0.43972    0.39007    0.19525    1.000
    Si2547   Si       0.41385    0.41892    0.17523    1.000
    N2548    N        0.44008    0.44967    0.15630    1.000
    N2549    N        0.43896    0.35444    0.32165    1.000
    Si2550   Si       0.42586    0.31557    0.33691    1.000
    Si2551   Si       0.41692    0.31267    0.26612    1.000
    N2552    N        0.45048    0.28771    0.35862    1.000
    N2553    N        0.40191    0.29861    0.30400    1.000
    N2554    N        0.43553    0.44215    0.25306    1.000
    Si2555   Si       0.41992    0.38882    0.33902    1.000
    N2556    N        0.44593    0.42129    0.32600    1.000
    N2557    N        0.45239    0.48910    0.32377    1.000
    Si2558   Si       0.45752    0.42725    0.28553    1.000
    Si2559   Si       0.43075    0.28864    0.39852    1.000
    N2560    N        0.44077    0.32499    0.41881    1.000
    Si2561   Si       0.41124    0.35135    0.40330    1.000
    N2562    N        0.43001    0.37905    0.49125    1.000
    N2563    N        0.44783    0.50865    0.44603    1.000
    N2564    N        0.41949    0.38949    0.38560    1.000
    Si2565   Si       0.41706    0.42813    0.40383    1.000
    Si2566   Si       0.45597    0.40353    0.46403    1.000
    N2567    N        0.42468    0.42575    0.44814    1.000
    N2568    N        0.44653    0.45391    0.38954    1.000
    N2569    N        0.43810    0.31002    0.52873    1.000
    Si2570   Si       0.40534    0.37228    0.57959    1.000
    Si2571   Si       0.45188    0.34989    0.51420    1.000
    N2572    N        0.43960    0.37952    0.55303    1.000
    N2573    N        0.41463    0.44933    0.52846    1.000
    Si2574   Si       0.43394    0.41148    0.52099    1.000
    Si2575   Si       0.44224    0.48001    0.54444    1.000
    N2576    N        0.42258    0.49435    0.58004    1.000
    N2577    N        0.42827    0.36918    0.73007    1.000
    Si2578   Si       0.42728    0.33388    0.70325    1.000
    N2579    N        0.42035    0.29830    0.63305    1.000
    N2580    N        0.44108    0.29832    0.72111    1.000
    N2581    N        0.45639    0.34478    0.67153    1.000
    N2582    N        0.40515    0.36876    0.62674    1.000
    Si2583   Si       0.44463    0.37847    0.64424    1.000
    Si2584   Si       0.41350    0.26099    0.72094    1.000
    Si2585   Si       0.46313    0.29956    0.62215    1.000
    Si2586   Si       0.42386    0.40729    0.71171    1.000
    N2587    N        0.43027    0.47316    0.66697    1.000
    N2588    N        0.44109    0.44013    0.73457    1.000
    N2589    N        0.43989    0.41024    0.67288    1.000
    N2590    N        0.42207    0.34721    0.80408    1.000
    Si2591   Si       0.43911    0.30463    0.80892    1.000
    N2592    N        0.44280    0.29504    0.85150    1.000
    N2593    N        0.40847    0.27903    0.79402    1.000
    Si2594   Si       0.44642    0.37928    0.82286    1.000
    Si2595   Si       0.40404    0.36356    0.76778    1.000
    Si2596   Si       0.43142    0.43770    0.77989    1.000
    N2597    N        0.41257    0.39280    0.84656    1.000
    N2598    N        0.41166    0.45262    0.81650    1.000
    N2599    N        0.42376    0.33122    0.96575    1.000
    Si2600   Si       0.43346    0.29009    0.97781    1.000
    Si2601   Si       0.44639    0.36148    0.98649    1.000
    N2602    N        0.44231    0.37630    0.91011    1.000
    N2603    N        0.44758    0.26341    0.94774    1.000
    N2604    N        0.42170    0.39597    0.97761    1.000
    Si2605   Si       0.41204    0.49775    0.96646    1.000
    Si2606   Si       0.40853    0.38769    0.93684    1.000
    N2607    N        0.43292    0.46800    0.98934    1.000
    Si2608   Si       0.43279    0.40950    0.88151    1.000
    N2609    N        0.40079    0.42326    0.91152    1.000
    N2610    N        0.43759    0.56475    0.03227    1.000
    N2611    N        0.42342    0.57086    0.09072    1.000
    Si2612   Si       0.44313    0.59916    0.05741    1.000
    Si2613   Si       0.44885    0.54462    0.11163    1.000
    N2614    N        0.40628    0.62090    0.05425    1.000
    Si2615   Si       0.40404    0.54877    0.05776    1.000
    N2616    N        0.43664    0.72461    0.00551    1.000
    N2617    N        0.41913    0.68894    0.05963    1.000
    Si2618   Si       0.44721    0.71334    0.07854    1.000
    Si2619   Si       0.40605    0.69817    0.02082    1.000
    N2620    N        0.43204    0.73004    0.11560    1.000
    N2621    N        0.41414    0.66434    0.99517    1.000
    Si2622   Si       0.41119    0.53645    0.21618    1.000
    N2623    N        0.42786    0.57363    0.20206    1.000
    N2624    N        0.42312    0.52148    0.14084    1.000
    Si2625   Si       0.40982    0.66774    0.14975    1.000
    N2626    N        0.45679    0.68469    0.22385    1.000
    N2627    N        0.44987    0.73794    0.18251    1.000
    N2628    N        0.45431    0.67400    0.14969    1.000
    Si2629   Si       0.43278    0.72139    0.22052    1.000
    N2630    N        0.41567    0.63983    0.18360    1.000
    Si2631   Si       0.45520    0.65506    0.19231    1.000
    Si2632   Si       0.45902    0.71912    0.14730    1.000
    Si2633   Si       0.44216    0.55369    0.27605    1.000
    Si2634   Si       0.43924    0.52418    0.34545    1.000
    N2635    N        0.44105    0.55910    0.31758    1.000
    N2636    N        0.41041    0.61183    0.35756    1.000
    Si2637   Si       0.44630    0.59653    0.33622    1.000
    N2638    N        0.40346    0.54319    0.25814    1.000
    Si2639   Si       0.44933    0.66868    0.31569    1.000
    N2640    N        0.40655    0.72564    0.34725    1.000
    Si2641   Si       0.44690    0.72161    0.36561    1.000
    N2642    N        0.40516    0.66430    0.31280    1.000
    N2643    N        0.42556    0.62941    0.47678    1.000
    Si2644   Si       0.41671    0.61048    0.39921    1.000
    N2645    N        0.43166    0.57150    0.41605    1.000
    Si2646   Si       0.43643    0.58684    0.48479    1.000
    Si2647   Si       0.41361    0.53953    0.43766    1.000
    N2648    N        0.40591    0.55625    0.47745    1.000
    Si2649   Si       0.41003    0.75238    0.42444    1.000
    N2650    N        0.44000    0.72591    0.40909    1.000
    N2651    N        0.43465    0.64552    0.41670    1.000
    Si2652   Si       0.43974    0.60050    0.57861    1.000
    N2653    N        0.43921    0.59634    0.52959    1.000
    Si2654   Si       0.44674    0.52235    0.60229    1.000
    N2655    N        0.44773    0.55701    0.57612    1.000
    N2656    N        0.45454    0.51496    0.52177    1.000
    N2657    N        0.40503    0.62517    0.58389    1.000
    Si2658   Si       0.42365    0.63717    0.52035    1.000
    N2659    N        0.42010    0.71294    0.50864    1.000
    Si2660   Si       0.41501    0.72742    0.55022    1.000
    N2661    N        0.45117    0.74872    0.56570    1.000
    Si2662   Si       0.41293    0.69906    0.61765    1.000
    N2663    N        0.40135    0.69492    0.57606    1.000
    N2664    N        0.46000    0.66014    0.52687    1.000
    N2665    N        0.43939    0.60125    0.63353    1.000
    Si2666   Si       0.43818    0.57112    0.66490    1.000
    N2667    N        0.43715    0.53476    0.64219    1.000
    N2668    N        0.42622    0.60302    0.74093    1.000
    Si2669   Si       0.40779    0.51295    0.67074    1.000
    N2670    N        0.40794    0.55355    0.69085    1.000
    N2671    N        0.42649    0.66169    0.63922    1.000
    N2672    N        0.44384    0.72735    0.62887    1.000
    Si2673   Si       0.42570    0.67226    0.68324    1.000
    Si2674   Si       0.41999    0.74111    0.66316    1.000
    N2675    N        0.43176    0.71395    0.69456    1.000
    N2676    N        0.43922    0.53076    0.80349    1.000
    Si2677   Si       0.41181    0.62498    0.77481    1.000
    N2678    N        0.42380    0.63118    0.85516    1.000
    Si2679   Si       0.45579    0.52506    0.84397    1.000
    Si2680   Si       0.40084    0.55140    0.79809    1.000
    Si2681   Si       0.43488    0.69905    0.78440    1.000
    N2682    N        0.43996    0.70080    0.82680    1.000
    N2683    N        0.44271    0.65541    0.78396    1.000
    Si2684   Si       0.41679    0.72428    0.85427    1.000
    Si2685   Si       0.45222    0.66168    0.84082    1.000
    N2686    N        0.39942    0.72220    0.77401    1.000
    Si2687   Si       0.43716    0.54952    0.98954    1.000
    N2688    N        0.44281    0.52540    0.94950    1.000
    N2689    N        0.43668    0.52572    0.88407    1.000
    N2690    N        0.44194    0.58749    0.97010    1.000
    Si2691   Si       0.40474    0.60343    0.94999    1.000
    Si2692   Si       0.43899    0.66153    0.96022    1.000
    N2693    N        0.41946    0.63772    0.92933    1.000
    N2694    N        0.44409    0.73813    0.88535    1.000
    N2695    N        0.44932    0.70019    0.94178    1.000
    Si2696   Si       0.44335    0.63429    0.89501    1.000
    Si2697   Si       0.42668    0.72859    0.96480    1.000
    N2698    N        0.41984    0.80633    0.03358    1.000
    N2699    N        0.44229    0.79727    0.09901    1.000
    N2700    N        0.43666    0.87120    0.01491    1.000
    Si2701   Si       0.45310    0.78948    0.05847    1.000
    Si2702   Si       0.42269    0.83333    0.99971    1.000
    Si2703   Si       0.41197    0.76951    0.11701    1.000
    Si2704   Si       0.44088    0.90347    0.04166    1.000
    N2705    N        0.43383    0.93987    0.01755    1.000
    Si2706   Si       0.42165    0.94738    0.10269    1.000
    Si2707   Si       0.44880    0.97737    0.03112    1.000
    N2708    N        0.44048    0.97609    0.07552    1.000
    N2709    N        0.41598    0.90964    0.07883    1.000
    Si2710   Si       0.45267    0.89359    0.10487    1.000
    N2711    N        0.42355    0.01240    0.02800    1.000
    N2712    N        0.43220    0.80025    0.22114    1.000
    Si2713   Si       0.42249    0.84143    0.22377    1.000
    Si2714   Si       0.43140    0.77779    0.18360    1.000
    N2715    N        0.42188    0.86041    0.18423    1.000
    N2716    N        0.45798    0.85926    0.23973    1.000
    N2717    N        0.45461    0.93064    0.12755    1.000
    N2718    N        0.42998    0.94698    0.23408    1.000
    N2719    N        0.42610    0.85783    0.30863    1.000
    N2720    N        0.43193    0.79183    0.28782    1.000
    Si2721   Si       0.44580    0.82011    0.31777    1.000
    N2722    N        0.43040    0.81416    0.35986    1.000
    Si2723   Si       0.45736    0.78484    0.25336    1.000
    Si2724   Si       0.44082    0.88417    0.33896    1.000
    Si2725   Si       0.41340    0.93990    0.34661    1.000
    Si2726   Si       0.43665    0.98245    0.26147    1.000
    N2727    N        0.44342    0.92278    0.31941    1.000
    N2728    N        0.43357    0.97432    0.36262    1.000
    N2729    N        0.41685    0.90198    0.37004    1.000
    N2730    N        0.43416    0.78696    0.43745    1.000
    N2731    N        0.43892    0.85219    0.41672    1.000
    Si2732   Si       0.41931    0.82643    0.44554    1.000
    N2733    N        0.42904    0.84374    0.48522    1.000
    Si2734   Si       0.46039    0.83582    0.38322    1.000
    Si2735   Si       0.42247    0.89285    0.41089    1.000
    N2736    N        0.41348    0.91402    0.48249    1.000
    N2737    N        0.42490    0.97608    0.45741    1.000
    N2738    N        0.45350    0.91789    0.42880    1.000
    Si2739   Si       0.44348    0.93809    0.46537    1.000
    Si2740   Si       0.40932    0.00178    0.38783    1.000
    Si2741   Si       0.45127    0.01054    0.45010    1.000
    N2742    N        0.43482    0.81550    0.56393    1.000
    Si2743   Si       0.41121    0.85138    0.56869    1.000
    N2744    N        0.42556    0.87847    0.59685    1.000
    Si2745   Si       0.42286    0.88100    0.50724    1.000
    Si2746   Si       0.39918    0.79086    0.57925    1.000
    Si2747   Si       0.42843    0.92085    0.59075    1.000
    N2748    N        0.42639    0.99691    0.56583    1.000
    N2749    N        0.45312    0.93550    0.55858    1.000
    N2750    N        0.42216    0.78081    0.67744    1.000
    N2751    N        0.42640    0.83179    0.71306    1.000
    Si2752   Si       0.45021    0.87905    0.63236    1.000
    Si2753   Si       0.45854    0.79907    0.69818    1.000
    N2754    N        0.42837    0.88574    0.67015    1.000
    N2755    N        0.40084    0.95303    0.67825    1.000
    N2756    N        0.42962    0.89256    0.73531    1.000
    Si2757   Si       0.43558    0.92623    0.67196    1.000
    N2758    N        0.45113    0.92688    0.62989    1.000
    N2759    N        0.45554    0.00140    0.67521    1.000
    Si2760   Si       0.41142    0.99402    0.68276    1.000
    Si2761   Si       0.44407    0.81422    0.80286    1.000
    N2762    N        0.44985    0.85005    0.77655    1.000
    N2763    N        0.45087    0.82681    0.84393    1.000
    Si2764   Si       0.41689    0.87835    0.77481    1.000
    N2765    N        0.40306    0.80477    0.78915    1.000
    N2766    N        0.43237    0.96638    0.84174    1.000
    Si2767   Si       0.43529    0.94938    0.80030    1.000
    N2768    N        0.41111    0.91138    0.79841    1.000
    N2769    N        0.40441    0.97954    0.78718    1.000
    N2770    N        0.42645    0.87603    0.90039    1.000
    Si2771   Si       0.42631    0.83852    0.87923    1.000
    Si2772   Si       0.42653    0.77021    0.90842    1.000
    N2773    N        0.43644    0.76783    0.95176    1.000
    N2774    N        0.44612    0.80915    0.90657    1.000
    N2775    N        0.45679    0.83122    0.97163    1.000
    N2776    N        0.44467    0.99306    0.91115    1.000
    Si2777   Si       0.43066    0.95985    0.88545    1.000
    N2778    N        0.48436    0.02977    0.07658    1.000
    N2779    N        0.47728    0.09292    0.06173    1.000
    Si2780   Si       0.49670    0.08382    0.02331    1.000
    Si2781   Si       0.49711    0.06846    0.09401    1.000
    N2782    N        0.50862    0.04444    0.01186    1.000
    Si2783   Si       0.50808    0.01323    0.04196    1.000
    Si2784   Si       0.48117    0.13109    0.08053    1.000
    N2785    N        0.51415    0.12294    0.10951    1.000
    N2786    N        0.48803    0.22805    0.04020    1.000
    N2787    N        0.49023    0.16128    0.05205    1.000
    Si2788   Si       0.47171    0.19824    0.06933    1.000
    N2789    N        0.47554    0.21010    0.11179    1.000
    Si2790   Si       0.47064    0.23932    0.00210    1.000
    Si2791   Si       0.51267    0.15329    0.01459    1.000
    N2792    N        0.46929    0.07671    0.12891    1.000
    N2793    N        0.50418    0.03346    0.18672    1.000
    N2794    N        0.50564    0.10390    0.17860    1.000
    Si2795   Si       0.48030    0.11976    0.14459    1.000
    Si2796   Si       0.51329    0.01134    0.15013    1.000
    N2797    N        0.46940    0.13043    0.23074    1.000
    Si2798   Si       0.48586    0.23781    0.19793    1.000
    Si2799   Si       0.50439    0.19334    0.14119    1.000
    N2800    N        0.51077    0.23029    0.16342    1.000
    Si2801   Si       0.50299    0.13898    0.20152    1.000
    N2802    N        0.48892    0.16151    0.16528    1.000
    N2803    N        0.49548    0.20596    0.22649    1.000
    N2804    N        0.48695    0.10840    0.35563    1.000
    N2805    N        0.48325    0.06976    0.26563    1.000
    Si2806   Si       0.47850    0.11289    0.26943    1.000
    N2807    N        0.46885    0.03147    0.35535    1.000
    Si2808   Si       0.51152    0.03043    0.34395    1.000
    N2809    N        0.47474    0.21817    0.34630    1.000
    Si2810   Si       0.49987    0.19655    0.31639    1.000
    N2811    N        0.46773    0.17875    0.29145    1.000
    Si2812   Si       0.46511    0.20262    0.25607    1.000
    N2813    N        0.45686    0.24449    0.27290    1.000
    N2814    N        0.47997    0.07682    0.41475    1.000
    Si2815   Si       0.47557    0.03651    0.39863    1.000
    Si2816   Si       0.50991    0.09065    0.38759    1.000
    N2817    N        0.46466    0.02093    0.49000    1.000
    Si2818   Si       0.46533    0.17306    0.44304    1.000
    Si2819   Si       0.46014    0.23715    0.45223    1.000
    N2820    N        0.48773    0.20238    0.46659    1.000
    N2821    N        0.46733    0.13620    0.46346    1.000
    N2822    N        0.47866    0.17396    0.40260    1.000
    Si2823   Si       0.47464    0.25462    0.37049    1.000
    N2824    N        0.49601    0.11571    0.56966    1.000
    Si2825   Si       0.49234    0.07566    0.55208    1.000
    N2826    N        0.48226    0.08679    0.51196    1.000
    Si2827   Si       0.48097    0.13143    0.50463    1.000
    N2828    N        0.45911    0.06102    0.57454    1.000
    N2829    N        0.47153    0.17988    0.58788    1.000
    Si2830   Si       0.48662    0.24326    0.55632    1.000
    Si2831   Si       0.51122    0.19196    0.60052    1.000
    Si2832   Si       0.46103    0.14085    0.57230    1.000
    Si2833   Si       0.51058    0.25399    0.61392    1.000
    N2834    N        0.52106    0.22692    0.57511    1.000
    N2835    N        0.51731    0.15453    0.50737    1.000
    Si2836   Si       0.49112    0.10751    0.70193    1.000
    Si2837   Si       0.47161    0.04226    0.67008    1.000
    N2838    N        0.50986    0.03964    0.64903    1.000
    N2839    N        0.47195    0.06738    0.70595    1.000
    N2840    N        0.49517    0.12950    0.73981    1.000
    Si2841   Si       0.50687    0.20077    0.67209    1.000
    N2842    N        0.46978    0.20098    0.69541    1.000
    Si2843   Si       0.47386    0.22014    0.73761    1.000
    N2844    N        0.50252    0.21964    0.63473    1.000
    N2845    N        0.50117    0.05143    0.76940    1.000
    N2846    N        0.48323    0.04004    0.84567    1.000
    Si2847   Si       0.50996    0.00760    0.84498    1.000
    Si2848   Si       0.46533    0.05701    0.74799    1.000
    N2849    N        0.51858    0.12973    0.85939    1.000
    N2850    N        0.46759    0.13598    0.80544    1.000
    Si2851   Si       0.47375    0.15624    0.76818    1.000
    Si2852   Si       0.47808    0.13981    0.84777    1.000
    Si2853   Si       0.49851    0.21970    0.80862    1.000
    N2854    N        0.48878    0.19605    0.77082    1.000
    N2855    N        0.46013    0.17536    0.86476    1.000
    N2856    N        0.46003    0.23777    0.82073    1.000
    N2857    N        0.50900    0.02834    0.93149    1.000
    Si2858   Si       0.47788    0.11918    0.96009    1.000
    N2859    N        0.49286    0.10783    0.92215    1.000
    N2860    N        0.46731    0.09141    0.99151    1.000
    N2861    N        0.50160    0.22194    0.97888    1.000
    N2862    N        0.51258    0.18859    0.91478    1.000
    Si2863   Si       0.48985    0.20411    0.88323    1.000
    N2864    N        0.49129    0.15615    0.97595    1.000
    N2865    N        0.47830    0.24652    0.88691    1.000
    Si2866   Si       0.48560    0.19134    0.95027    1.000
    Si2867   Si       0.48550    0.35684    0.04567    1.000
    N2868    N        0.47405    0.31868    0.07270    1.000
    N2869    N        0.50819    0.37573    0.08366    1.000
    Si2870   Si       0.47362    0.37934    0.11076    1.000
    Si2871   Si       0.46447    0.31945    0.11492    1.000
    Si2872   Si       0.47130    0.48082    0.00732    1.000
    N2873    N        0.48211    0.40254    0.02626    1.000
    Si2874   Si       0.50021    0.49030    0.07691    1.000
    N2875    N        0.48026    0.46644    0.04653    1.000
    N2876    N        0.49706    0.46852    0.11516    1.000
    Si2877   Si       0.51668    0.42203    0.00565    1.000
    N2878    N        0.49505    0.34269    0.13398    1.000
    N2879    N        0.47967    0.33836    0.20181    1.000
    N2880    N        0.49468    0.27536    0.21998    1.000
    Si2881   Si       0.51354    0.31107    0.20520    1.000
    Si2882   Si       0.49189    0.36892    0.17407    1.000
    N2883    N        0.48407    0.49982    0.17313    1.000
    Si2884   Si       0.47031    0.43737    0.12690    1.000
    N2885    N        0.49090    0.40277    0.14476    1.000
    Si2886   Si       0.50418    0.46756    0.19571    1.000
    N2887    N        0.49238    0.43230    0.21844    1.000
    Si2888   Si       0.45735    0.41232    0.22843    1.000
    Si2889   Si       0.48221    0.27737    0.26351    1.000
    N2890    N        0.50826    0.34976    0.30016    1.000
    Si2891   Si       0.46840    0.35256    0.28812    1.000
    N2892    N        0.45976    0.31220    0.27160    1.000
    N2893    N        0.49484    0.45172    0.28884    1.000
    Si2894   Si       0.48452    0.49372    0.29477    1.000
    N2895    N        0.50589    0.45435    0.35340    1.000
    N2896    N        0.46577    0.38928    0.26686    1.000
    Si2897   Si       0.46252    0.45369    0.34909    1.000
    Si2898   Si       0.47677    0.33823    0.43903    1.000
    N2899    N        0.49010    0.26671    0.46422    1.000
    N2900    N        0.47175    0.32788    0.48015    1.000
    N2901    N        0.51342    0.26373    0.38852    1.000
    N2902    N        0.48080    0.38200    0.43875    1.000
    N2903    N        0.51580    0.31884    0.42884    1.000
    Si2904   Si       0.51474    0.27463    0.43069    1.000
    N2905    N        0.50090    0.48292    0.48695    1.000
    N2906    N        0.50692    0.47665    0.41819    1.000
    Si2907   Si       0.46636    0.48907    0.41160    1.000
    N2908    N        0.49125    0.34312    0.53749    1.000
    Si2909   Si       0.47928    0.36895    0.57514    1.000
    N2910    N        0.48926    0.27573    0.52835    1.000
    N2911    N        0.48034    0.27306    0.58932    1.000
    Si2912   Si       0.47371    0.30541    0.55720    1.000
    N2913    N        0.46604    0.33028    0.59408    1.000
    Si2914   Si       0.46109    0.28756    0.49468    1.000
    Si2915   Si       0.50685    0.41293    0.61194    1.000
    Si2916   Si       0.50548    0.47681    0.59209    1.000
    Si2917   Si       0.50111    0.45218    0.51697    1.000
    N2918    N        0.48319    0.46458    0.55458    1.000
    N2919    N        0.47102    0.42305    0.50069    1.000
    N2920    N        0.46849    0.39517    0.61141    1.000
    Si2921   Si       0.49233    0.32561    0.68401    1.000
    N2922    N        0.49191    0.28960    0.65314    1.000
    N2923    N        0.50551    0.32070    0.72541    1.000
    Si2924   Si       0.47581    0.29236    0.74439    1.000
    N2925    N        0.49749    0.25652    0.73236    1.000
    N2926    N        0.48927    0.45504    0.62837    1.000
    Si2927   Si       0.46277    0.44642    0.66284    1.000
    Si2928   Si       0.48089    0.46666    0.73474    1.000
    N2929    N        0.49600    0.45485    0.69290    1.000
    N2930    N        0.47721    0.29723    0.78786    1.000
    N2931    N        0.47314    0.35665    0.84814    1.000
    Si2932   Si       0.47842    0.31804    0.86496    1.000
    Si2933   Si       0.51763    0.29105    0.80403    1.000
    N2934    N        0.51387    0.30045    0.84521    1.000
    N2935    N        0.47683    0.48552    0.84850    1.000
    Si2936   Si       0.47704    0.44882    0.81987    1.000
    N2937    N        0.46577    0.47058    0.78110    1.000
    N2938    N        0.46036    0.41110    0.80039    1.000
    Si2939   Si       0.50012    0.38785    0.86429    1.000
    N2940    N        0.47104    0.42352    0.86350    1.000
    N2941    N        0.48492    0.35925    0.96561    1.000
    Si2942   Si       0.48097    0.27252    0.92108    1.000
    N2943    N        0.47687    0.31259    0.90666    1.000
    Si2944   Si       0.47489    0.35272    0.92264    1.000
    N2945    N        0.51248    0.37234    0.90274    1.000
    Si2946   Si       0.51608    0.47818    0.95090    1.000
    N2947    N        0.50012    0.45471    0.98397    1.000
    N2948    N        0.48767    0.48016    0.91711    1.000
    Si2949   Si       0.49381    0.45963    0.87994    1.000
    N2950    N        0.49198    0.59364    0.03472    1.000
    N2951    N        0.47512    0.52910    0.07868    1.000
    Si2952   Si       0.48123    0.54899    0.03812    1.000
    Si2953   Si       0.50502    0.61432    0.07151    1.000
    N2954    N        0.47083    0.52374    0.00567    1.000
    N2955    N        0.46513    0.62515    0.08670    1.000
    Si2956   Si       0.47745    0.73318    0.01830    1.000
    N2957    N        0.48507    0.69065    0.09450    1.000
    N2958    N        0.49483    0.69168    0.01769    1.000
    Si2959   Si       0.51091    0.68636    0.05702    1.000
    Si2960   Si       0.47607    0.65434    0.11684    1.000
    N2961    N        0.46459    0.74682    0.05786    1.000
    N2962    N        0.47542    0.56592    0.13802    1.000
    N2963    N        0.49252    0.55332    0.20799    1.000
    Si2964   Si       0.49501    0.53909    0.16602    1.000
    N2965    N        0.48263    0.62259    0.20066    1.000
    Si2966   Si       0.46685    0.58677    0.21578    1.000
    Si2967   Si       0.50494    0.52949    0.24058    1.000
    Si2968   Si       0.51360    0.58705    0.13129    1.000
    N2969    N        0.51128    0.63108    0.13198    1.000
    N2970    N        0.49993    0.73827    0.14007    1.000
    Si2971   Si       0.49281    0.61112    0.28346    1.000
    N2972    N        0.46862    0.51973    0.26431    1.000
    N2973    N        0.51298    0.52154    0.31249    1.000
    N2974    N        0.46642    0.58702    0.25903    1.000
    N2975    N        0.46543    0.62818    0.31296    1.000
    N2976    N        0.47591    0.58992    0.36733    1.000
    N2977    N        0.51398    0.63889    0.25736    1.000
    Si2978   Si       0.48406    0.70401    0.25246    1.000
    N2979    N        0.47801    0.74593    0.34935    1.000
    N2980    N        0.47524    0.69684    0.29407    1.000
    Si2981   Si       0.49838    0.72246    0.31871    1.000
    N2982    N        0.46346    0.68279    0.35585    1.000
    Si2983   Si       0.50404    0.67673    0.36833    1.000
    N2984    N        0.46322    0.74352    0.24769    1.000
    N2985    N        0.50426    0.55462    0.42494    1.000
    N2986    N        0.47139    0.56171    0.48608    1.000
    Si2987   Si       0.47041    0.56164    0.39921    1.000
    N2988    N        0.49337    0.61951    0.45259    1.000
    Si2989   Si       0.50524    0.57935    0.46022    1.000
    Si2990   Si       0.47216    0.51699    0.48326    1.000
    N2991    N        0.46271    0.52212    0.38299    1.000
    N2992    N        0.50723    0.69884    0.40650    1.000
    N2993    N        0.49622    0.74951    0.44537    1.000
    Si2994   Si       0.46094    0.64720    0.45319    1.000
    Si2995   Si       0.47470    0.71562    0.43191    1.000
    N2996    N        0.46733    0.68819    0.46305    1.000
    N2997    N        0.50846    0.56119    0.54463    1.000
    N2998    N        0.47562    0.62568    0.58692    1.000
    Si2999   Si       0.46538    0.55692    0.53627    1.000
    N3000    N        0.48856    0.51611    0.60253    1.000
    Si3001   Si       0.49359    0.64674    0.55326    1.000
    N3002    N        0.49715    0.72014    0.51592    1.000
    Si3003   Si       0.47303    0.74694    0.60473    1.000
    N3004    N        0.51227    0.72886    0.61000    1.000
    N3005    N        0.51443    0.67881    0.57149    1.000
    Si3006   Si       0.46044    0.69728    0.50507    1.000
    N3007    N        0.50444    0.52549    0.67307    1.000
    Si3008   Si       0.49120    0.54223    0.70811    1.000
    N3009    N        0.46933    0.57842    0.69540    1.000
    Si3010   Si       0.46299    0.61383    0.72009    1.000
    N3011    N        0.47392    0.51243    0.73486    1.000
    N3012    N        0.50034    0.71720    0.69191    1.000
    Si3013   Si       0.46321    0.63821    0.62745    1.000
    Si3014   Si       0.46670    0.72603    0.71842    1.000
    Si3015   Si       0.49572    0.67488    0.68337    1.000
    N3016    N        0.46047    0.65330    0.69831    1.000
    N3017    N        0.49225    0.66568    0.64178    1.000
    N3018    N        0.48577    0.55757    0.84390    1.000
    N3019    N        0.50875    0.52133    0.79387    1.000
    N3020    N        0.49264    0.61710    0.75280    1.000
    Si3021   Si       0.46925    0.51296    0.77712    1.000
    N3022    N        0.49093    0.64391    0.82557    1.000
    Si3023   Si       0.48477    0.65094    0.78077    1.000
    N3024    N        0.46656    0.71665    0.76160    1.000
    Si3025   Si       0.48510    0.75432    0.76824    1.000
    Si3026   Si       0.47891    0.60399    0.95289    1.000
    Si3027   Si       0.49551    0.57911    0.87963    1.000
    N3028    N        0.50431    0.54715    0.90913    1.000
    Si3029   Si       0.46824    0.52079    0.91511    1.000
    N3030    N        0.47208    0.60272    0.90788    1.000
    N3031    N        0.51643    0.58372    0.96753    1.000
    N3032    N        0.50838    0.72258    0.90591    1.000
    N3033    N        0.46157    0.67160    0.88207    1.000
    Si3034   Si       0.46757    0.70722    0.90380    1.000
    N3035    N        0.47815    0.64414    0.96656    1.000
    Si3036   Si       0.50970    0.66989    0.98523    1.000
    N3037    N        0.48657    0.81655    0.04863    1.000
    Si3038   Si       0.49863    0.85931    0.04948    1.000
    N3039    N        0.50686    0.87397    0.00970    1.000
    N3040    N        0.50714    0.76087    0.00624    1.000
    N3041    N        0.47608    0.88949    0.06802    1.000
    N3042    N        0.49198    0.97958    0.02206    1.000
    Si3043   Si       0.46285    0.00210    0.10257    1.000
    Si3044   Si       0.46788    0.82078    0.12659    1.000
    Si3045   Si       0.50161    0.77814    0.15500    1.000
    N3046    N        0.50173    0.85336    0.19173    1.000
    Si3047   Si       0.49780    0.84649    0.23491    1.000
    N3048    N        0.51070    0.81541    0.12755    1.000
    N3049    N        0.46338    0.79544    0.16029    1.000
    N3050    N        0.46072    0.86153    0.13200    1.000
    Si3051   Si       0.46197    0.87113    0.17622    1.000
    Si3052   Si       0.49480    0.00751    0.21969    1.000
    Si3053   Si       0.48549    0.94648    0.15569    1.000
    N3054    N        0.47731    0.91040    0.18616    1.000
    Si3055   Si       0.47028    0.93367    0.22167    1.000
    N3056    N        0.48796    0.96885    0.20068    1.000
    N3057    N        0.48381    0.98560    0.13491    1.000
    N3058    N        0.48668    0.80791    0.32270    1.000
    Si3059   Si       0.49654    0.78337    0.35825    1.000
    N3060    N        0.47469    0.86605    0.35692    1.000
    N3061    N        0.49536    0.80710    0.25494    1.000
    Si3062   Si       0.51359    0.79398    0.29170    1.000
    Si3063   Si       0.51503    0.88538    0.35290    1.000
    Si3064   Si       0.47920    0.93613    0.30093    1.000
    N3065    N        0.49018    0.92674    0.25930    1.000
    N3066    N        0.51153    0.91989    0.32649    1.000
    Si3067   Si       0.46399    0.99164    0.33636    1.000
    N3068    N        0.50813    0.98686    0.33972    1.000
    N3069    N        0.46491    0.97802    0.29343    1.000
    Si3070   Si       0.47804    0.78753    0.43476    1.000
    N3071    N        0.48817    0.80361    0.39664    1.000
    N3072    N        0.50427    0.87609    0.45633    1.000
    N3073    N        0.48859    0.81439    0.46881    1.000
    Si3074   Si       0.47373    0.85462    0.48281    1.000
    Si3075   Si       0.49542    0.90775    0.42876    1.000
    N3076    N        0.48990    0.00471    0.42737    1.000
    N3077    N        0.48881    0.78878    0.60051    1.000
    N3078    N        0.50388    0.79880    0.53493    1.000
    Si3079   Si       0.47057    0.79038    0.56114    1.000
    N3080    N        0.46722    0.88332    0.51228    1.000
    Si3081   Si       0.48181    0.91990    0.52800    1.000
    N3082    N        0.48408    0.98137    0.60617    1.000
    N3083    N        0.49906    0.98968    0.54331    1.000
    Si3084   Si       0.46464    0.97659    0.56823    1.000
    Si3085   Si       0.49591    0.98862    0.49975    1.000
    N3086    N        0.51993    0.91556    0.54898    1.000
    N3087    N        0.47499    0.95094    0.49401    1.000
    N3088    N        0.48504    0.85540    0.62787    1.000
    N3089    N        0.48698    0.78410    0.66591    1.000
    Si3090   Si       0.49608    0.81277    0.63490    1.000
    N3091    N        0.48838    0.83039    0.71094    1.000
    N3092    N        0.47106    0.76719    0.72657    1.000
    Si3093   Si       0.45932    0.85745    0.73359    1.000
    N3094    N        0.51727    0.90999    0.63570    1.000
    N3095    N        0.49457    0.88811    0.73989    1.000
    Si3096   Si       0.46561    0.92059    0.73953    1.000
    N3097    N        0.50596    0.98835    0.72910    1.000
    N3098    N        0.51274    0.96689    0.65977    1.000
    Si3099   Si       0.51336    0.00209    0.62873    1.000
    Si3100   Si       0.48549    0.97724    0.69157    1.000
    N3101    N        0.46600    0.93974    0.70080    1.000
    Si3102   Si       0.49066    0.94321    0.62582    1.000
    Si3103   Si       0.49100    0.82569    0.85753    1.000
    N3104    N        0.46846    0.78158    0.79652    1.000
    N3105    N        0.47100    0.93831    0.77785    1.000
    Si3106   Si       0.50953    0.94421    0.79742    1.000
    N3107    N        0.50943    0.98834    0.80429    1.000
    N3108    N        0.51282    0.92081    0.83525    1.000
    Si3109   Si       0.49333    0.00925    0.76621    1.000
    N3110    N        0.49323    0.86664    0.87805    1.000
    Si3111   Si       0.47000    0.87068    0.98499    1.000
    N3112    N        0.50745    0.78137    0.94238    1.000
    Si3113   Si       0.46702    0.79897    0.94439    1.000
    Si3114   Si       0.50255    0.93842    0.87380    1.000
    Si3115   Si       0.51905    0.96714    0.98910    1.000
    N3116    N        0.50259    0.98126    0.87844    1.000
    N3117    N        0.47918    0.89443    0.94806    1.000
    Si3118   Si       0.46908    0.89040    0.90476    1.000
    N3119    N        0.46413    0.92950    0.89130    1.000
    Si3120   Si       0.48622    0.99432    0.91773    1.000
    Si3121   Si       0.50780    0.92648    0.94162    1.000
    N3122    N        0.49418    0.96630    0.95140    1.000
    N3123    N        0.54113    0.07378    0.07123    1.000
    Si3124   Si       0.55158    0.03889    0.09322    1.000
    Si3125   Si       0.56082    0.10260    0.04407    1.000
    N3126    N        0.52800    0.11282    0.01673    1.000
    Si3127   Si       0.56497    0.21345    0.10727    1.000
    N3128    N        0.55294    0.24923    0.01032    1.000
    N3129    N        0.54629    0.17927    0.00948    1.000
    N3130    N        0.54960    0.21070    0.06534    1.000
    Si3131   Si       0.52763    0.21986    0.02860    1.000
    Si3132   Si       0.55257    0.14025    0.10878    1.000
    N3133    N        0.57607    0.13694    0.06866    1.000
    Si3134   Si       0.58141    0.17994    0.05480    1.000
    N3135    N        0.55835    0.25185    0.12157    1.000
    N3136    N        0.56695    0.07030    0.17666    1.000
    Si3137   Si       0.52519    0.06715    0.16685    1.000
    N3138    N        0.52618    0.04795    0.12613    1.000
    N3139    N        0.55173    0.08105    0.24793    1.000
    N3140    N        0.53619    0.15107    0.22808    1.000
    N3141    N        0.54237    0.18030    0.12444    1.000
    Si3142   Si       0.53718    0.19212    0.24194    1.000
    N3143    N        0.53482    0.04922    0.31140    1.000
    N3144    N        0.55820    0.10658    0.34458    1.000
    Si3145   Si       0.55039    0.12432    0.25907    1.000
    Si3146   Si       0.52507    0.05367    0.27018    1.000
    Si3147   Si       0.57041    0.06522    0.33095    1.000
    N3148    N        0.52755    0.01410    0.25045    1.000
    Si3149   Si       0.51948    0.12261    0.33048    1.000
    N3150    N        0.51858    0.12259    0.28771    1.000
    Si3151   Si       0.54699    0.24649    0.29419    1.000
    N3152    N        0.55133    0.24440    0.33691    1.000
    N3153    N        0.53037    0.20776    0.28320    1.000
    Si3154   Si       0.56720    0.21090    0.36131    1.000
    N3155    N        0.51859    0.16478    0.34240    1.000
    Si3156   Si       0.56229    0.03770    0.39558    1.000
    Si3157   Si       0.56552    0.11263    0.42453    1.000
    N3158    N        0.52875    0.12610    0.40746    1.000
    N3159    N        0.56544    0.11257    0.46985    1.000
    N3160    N        0.56985    0.06768    0.42659    1.000
    N3161    N        0.52550    0.05223    0.37825    1.000
    Si3162   Si       0.51801    0.16291    0.38691    1.000
    Si3163   Si       0.52421    0.19404    0.48924    1.000
    N3164    N        0.54771    0.19305    0.39528    1.000
    N3165    N        0.55794    0.19230    0.46215    1.000
    Si3166   Si       0.56601    0.21914    0.42654    1.000
    N3167    N        0.55777    0.10962    0.54201    1.000
    N3168    N        0.54790    0.09851    0.61284    1.000
    Si3169   Si       0.53762    0.12463    0.58053    1.000
    N3170    N        0.52881    0.05044    0.55459    1.000
    Si3171   Si       0.56734    0.06713    0.54073    1.000
    Si3172   Si       0.55528    0.13454    0.50514    1.000
    N3173    N        0.57824    0.04969    0.50054    1.000
    N3174    N        0.53908    0.23000    0.51130    1.000
    Si3175   Si       0.55739    0.23490    0.55198    1.000
    N3176    N        0.54288    0.16486    0.59583    1.000
    Si3177   Si       0.53940    0.07282    0.64691    1.000
    N3178    N        0.52968    0.09655    0.68368    1.000
    N3179    N        0.55626    0.09060    0.74995    1.000
    N3180    N        0.53556    0.21690    0.69764    1.000
    Si3181   Si       0.54822    0.13644    0.68079    1.000
    N3182    N        0.51467    0.15869    0.66507    1.000
    Si3183   Si       0.56704    0.19503    0.71744    1.000
    N3184    N        0.55681    0.15344    0.72022    1.000
    N3185    N        0.54891    0.07803    0.81726    1.000
    Si3186   Si       0.54218    0.06214    0.77790    1.000
    N3187    N        0.56144    0.02492    0.77074    1.000
    Si3188   Si       0.56453    0.05650    0.85085    1.000
    Si3189   Si       0.54742    0.12100    0.82790    1.000
    N3190    N        0.55406    0.01399    0.84410    1.000
    N3191    N        0.51676    0.20727    0.84708    1.000
    N3192    N        0.54163    0.14367    0.79213    1.000
    Si3193   Si       0.55733    0.22275    0.85408    1.000
    Si3194   Si       0.56912    0.24660    0.77952    1.000
    N3195    N        0.56625    0.20723    0.75879    1.000
    N3196    N        0.53190    0.24932    0.80016    1.000
    Si3197   Si       0.53813    0.12868    0.74972    1.000
    Si3198   Si       0.57344    0.17468    0.78873    1.000
    Si3199   Si       0.52484    0.03366    0.97295    1.000
    N3200    N        0.54919    0.07633    0.88688    1.000
    N3201    N        0.55568    0.06197    0.95811    1.000
    Si3202   Si       0.53060    0.11382    0.89833    1.000
    Si3203   Si       0.54655    0.04877    0.91848    1.000
    N3204    N        0.57530    0.01621    0.91178    1.000
    N3205    N        0.56105    0.13987    0.91931    1.000
    Si3206   Si       0.54147    0.24261    0.96716    1.000
    N3207    N        0.56497    0.20978    0.95226    1.000
    Si3208   Si       0.55611    0.18417    0.91905    1.000
    N3209    N        0.57730    0.19783    0.88445    1.000
    N3210    N        0.54799    0.31272    0.08707    1.000
    Si3211   Si       0.55867    0.33483    0.04933    1.000
    Si3212   Si       0.52979    0.34577    0.10737    1.000
    N3213    N        0.52213    0.34656    0.02651    1.000
    Si3214   Si       0.56788    0.46514    0.04939    1.000
    N3215    N        0.54412    0.48746    0.07868    1.000
    N3216    N        0.54493    0.42904    0.04046    1.000
    Si3217   Si       0.54409    0.40255    0.07640    1.000
    N3218    N        0.54877    0.42819    0.11031    1.000
    N3219    N        0.56961    0.48300    0.00968    1.000
    Si3220   Si       0.57402    0.33115    0.15643    1.000
    N3221    N        0.53822    0.32759    0.23850    1.000
    N3222    N        0.54328    0.30099    0.17104    1.000
    N3223    N        0.55739    0.36534    0.13290    1.000
    Si3224   Si       0.56099    0.36044    0.21921    1.000
    N3225    N        0.53149    0.37836    0.18958    1.000
    Si3226   Si       0.54595    0.25867    0.16283    1.000
    N3227    N        0.53589    0.45527    0.16892    1.000
    N3228    N        0.56015    0.43748    0.22989    1.000
    Si3229   Si       0.54671    0.40315    0.15216    1.000
    N3230    N        0.51602    0.48764    0.23293    1.000
    Si3231   Si       0.57500    0.45058    0.19186    1.000
    Si3232   Si       0.53938    0.46879    0.12663    1.000
    N3233    N        0.56907    0.50331    0.13685    1.000
    Si3234   Si       0.53288    0.31957    0.28043    1.000
    Si3235   Si       0.54401    0.37367    0.30746    1.000
    N3236    N        0.56945    0.33468    0.30516    1.000
    N3237    N        0.51928    0.27969    0.28395    1.000
    N3238    N        0.53886    0.39714    0.34384    1.000
    N3239    N        0.55914    0.46750    0.31394    1.000
    N3240    N        0.54242    0.41033    0.28342    1.000
    Si3241   Si       0.52746    0.43623    0.31859    1.000
    Si3242   Si       0.52095    0.44266    0.25137    1.000
    Si3243   Si       0.54942    0.50697    0.33128    1.000
    Si3244   Si       0.55139    0.27185    0.37090    1.000
    N3245    N        0.56137    0.31417    0.37590    1.000
    Si3246   Si       0.55343    0.33287    0.41451    1.000
    N3247    N        0.53237    0.37031    0.48130    1.000
    N3248    N        0.55061    0.37559    0.41133    1.000
    N3249    N        0.55233    0.25762    0.44400    1.000
    Si3250   Si       0.55335    0.40629    0.49226    1.000
    Si3251   Si       0.52919    0.46906    0.45459    1.000
    N3252    N        0.57020    0.43941    0.39028    1.000
    Si3253   Si       0.53450    0.46598    0.38561    1.000
    N3254    N        0.54771    0.50454    0.37488    1.000
    Si3255   Si       0.56632    0.39838    0.37798    1.000
    Si3256   Si       0.52279    0.38907    0.44218    1.000
    N3257    N        0.56031    0.49830    0.45671    1.000
    N3258    N        0.53626    0.42690    0.45688    1.000
    Si3259   Si       0.55663    0.35921    0.57862    1.000
    N3260    N        0.56485    0.34525    0.53649    1.000
    Si3261   Si       0.52649    0.34041    0.51106    1.000
    N3262    N        0.57191    0.27847    0.55485    1.000
    N3263    N        0.57679    0.33270    0.60634    1.000
    Si3264   Si       0.51914    0.26729    0.49696    1.000
    N3265    N        0.52115    0.38096    0.58212    1.000
    N3266    N        0.54414    0.30231    0.49497    1.000
    N3267    N        0.54487    0.27712    0.61730    1.000
    Si3268   Si       0.59202    0.30901    0.53085    1.000
    N3269    N        0.53680    0.44236    0.59153    1.000
    N3270    N        0.53827    0.42660    0.52589    1.000
    Si3271   Si       0.56055    0.42407    0.56136    1.000
    Si3272   Si       0.56961    0.48011    0.59797    1.000
    N3273    N        0.54329    0.50493    0.57173    1.000
    N3274    N        0.53084    0.34025    0.66711    1.000
    Si3275   Si       0.53818    0.30171    0.65275    1.000
    N3276    N        0.55597    0.28109    0.68510    1.000
    Si3277   Si       0.53687    0.25641    0.71367    1.000
    Si3278   Si       0.54364    0.38088    0.67776    1.000
    Si3279   Si       0.54367    0.31670    0.74457    1.000
    Si3280   Si       0.52792    0.44982    0.65971    1.000
    N3281    N        0.56936    0.50149    0.72203    1.000
    N3282    N        0.56536    0.44190    0.68382    1.000
    N3283    N        0.52277    0.40688    0.65074    1.000
    Si3284   Si       0.55222    0.43843    0.72714    1.000
    N3285    N        0.54626    0.48477    0.63610    1.000
    N3286    N        0.54740    0.39457    0.71908    1.000
    Si3287   Si       0.55783    0.35662    0.81325    1.000
    N3288    N        0.54020    0.32570    0.78739    1.000
    Si3289   Si       0.55473    0.30167    0.85845    1.000
    N3290    N        0.55788    0.27416    0.74697    1.000
    N3291    N        0.57473    0.26340    0.85387    1.000
    N3292    N        0.52001    0.45113    0.81567    1.000
    N3293    N        0.53196    0.38538    0.83417    1.000
    Si3294   Si       0.53076    0.48199    0.78610    1.000
    Si3295   Si       0.54730    0.42551    0.83827    1.000
    N3296    N        0.57254    0.49731    0.79094    1.000
    N3297    N        0.52182    0.45870    0.74977    1.000
    Si3298   Si       0.54885    0.35721    0.91704    1.000
    N3299    N        0.55306    0.31887    0.89668    1.000
    Si3300   Si       0.55225    0.29729    0.93384    1.000
    N3301    N        0.55246    0.33485    0.95846    1.000
    Si3302   Si       0.52378    0.35688    0.98481    1.000
    N3303    N        0.52016    0.26988    0.94030    1.000
    N3304    N        0.54190    0.39705    0.98007    1.000
    Si3305   Si       0.56053    0.42958    0.90925    1.000
    N3306    N        0.55257    0.45464    0.94260    1.000
    N3307    N        0.53335    0.43511    0.87857    1.000
    Si3308   Si       0.55017    0.56287    0.06010    1.000
    N3309    N        0.52687    0.54030    0.02948    1.000
    N3310    N        0.56319    0.59477    0.03347    1.000
    N3311    N        0.52441    0.58068    0.09055    1.000
    Si3312   Si       0.55312    0.52424    0.99914    1.000
    Si3313   Si       0.52601    0.59740    0.00599    1.000
    Si3314   Si       0.56208    0.63801    0.03645    1.000
    N3315    N        0.53663    0.71739    0.07375    1.000
    Si3316   Si       0.56746    0.74605    0.07553    1.000
    N3317    N        0.52981    0.64855    0.06675    1.000
    N3318    N        0.53616    0.64007    0.00217    1.000
    Si3319   Si       0.52044    0.71133    0.11261    1.000
    N3320    N        0.55673    0.60860    0.21225    1.000
    N3321    N        0.53381    0.55795    0.15677    1.000
    Si3322   Si       0.56587    0.56851    0.22851    1.000
    Si3323   Si       0.57328    0.54056    0.15917    1.000
    Si3324   Si       0.52096    0.63431    0.21539    1.000
    N3325    N        0.52468    0.71154    0.23886    1.000
    Si3326   Si       0.54591    0.65346    0.14638    1.000
    N3327    N        0.53544    0.66433    0.18618    1.000
    N3328    N        0.56460    0.73098    0.18293    1.000
    N3329    N        0.55437    0.69404    0.13085    1.000
    Si3330   Si       0.55379    0.69682    0.20771    1.000
    Si3331   Si       0.53977    0.55607    0.29859    1.000
    N3332    N        0.53576    0.55421    0.25684    1.000
    N3333    N        0.57397    0.53805    0.31576    1.000
    N3334    N        0.54400    0.57143    0.36981    1.000
    N3335    N        0.52003    0.59112    0.31008    1.000
    Si3336   Si       0.51593    0.60073    0.35279    1.000
    N3337    N        0.52749    0.69791    0.33602    1.000
    Si3338   Si       0.55001    0.73700    0.26578    1.000
    Si3339   Si       0.57021    0.69946    0.32755    1.000
    N3340    N        0.52612    0.64004    0.37119    1.000
    N3341    N        0.52189    0.75170    0.29451    1.000
    Si3342   Si       0.53800    0.54025    0.39880    1.000
    Si3343   Si       0.56446    0.54262    0.46073    1.000
    N3344    N        0.53865    0.57087    0.48276    1.000
    N3345    N        0.57448    0.55395    0.41946    1.000
    Si3346   Si       0.51849    0.73545    0.48180    1.000
    N3347    N        0.57307    0.68727    0.40211    1.000
    Si3348   Si       0.56825    0.64979    0.38053    1.000
    Si3349   Si       0.54355    0.70982    0.42334    1.000
    N3350    N        0.56668    0.74661    0.42015    1.000
    N3351    N        0.54560    0.70525    0.46643    1.000
    Si3352   Si       0.53707    0.58532    0.52367    1.000
    N3353    N        0.52354    0.62704    0.52840    1.000
    N3354    N        0.53704    0.55783    0.61703    1.000
    Si3355   Si       0.52049    0.53979    0.58177    1.000
    Si3356   Si       0.52364    0.71472    0.54933    1.000
    Si3357   Si       0.56304    0.64933    0.53477    1.000
    N3358    N        0.55951    0.69506    0.53059    1.000
    N3359    N        0.54610    0.75012    0.56107    1.000
    Si3360   Si       0.55255    0.75054    0.60961    1.000
    Si3361   Si       0.51833    0.68684    0.61323    1.000
    N3362    N        0.57363    0.61457    0.64777    1.000
    N3363    N        0.52837    0.55999    0.72562    1.000
    Si3364   Si       0.56708    0.54333    0.71281    1.000
    Si3365   Si       0.53755    0.52460    0.64676    1.000
    N3366    N        0.56993    0.54475    0.66989    1.000
    Si3367   Si       0.57563    0.57313    0.63604    1.000
    N3368    N        0.53207    0.65555    0.69786    1.000
    N3369    N        0.55249    0.75774    0.65263    1.000
    N3370    N        0.55699    0.67429    0.63017    1.000
    Si3371   Si       0.54342    0.65693    0.73979    1.000
    Si3372   Si       0.51972    0.75626    0.68202    1.000
    Si3373   Si       0.56159    0.65195    0.66757    1.000
    N3374    N        0.55482    0.53898    0.84760    1.000
    N3375    N        0.53610    0.58392    0.79676    1.000
    Si3376   Si       0.56784    0.61388    0.79514    1.000
    N3377    N        0.55907    0.61917    0.75178    1.000
    Si3378   Si       0.52690    0.58980    0.75453    1.000
    Si3379   Si       0.52220    0.55205    0.82136    1.000
    N3380    N        0.53143    0.60172    0.86943    1.000
    N3381    N        0.55778    0.64550    0.82100    1.000
    Si3382   Si       0.54809    0.70758    0.77604    1.000
    Si3383   Si       0.52656    0.63951    0.84819    1.000
    N3384    N        0.56993    0.71240    0.81307    1.000
    N3385    N        0.52867    0.74439    0.76785    1.000
    Si3386   Si       0.57202    0.68023    0.84269    1.000
    N3387    N        0.51990    0.67557    0.77096    1.000
    N3388    N        0.57396    0.68762    0.74513    1.000
    Si3389   Si       0.56528    0.57300    0.87482    1.000
    Si3390   Si       0.53420    0.55501    0.93941    1.000
    N3391    N        0.53337    0.51649    0.96083    1.000
    N3392    N        0.56846    0.57399    0.91990    1.000
    N3393    N        0.56890    0.75186    0.96849    1.000
    N3394    N        0.54187    0.67466    0.87453    1.000
    Si3395   Si       0.57071    0.70784    0.96472    1.000
    N3396    N        0.53406    0.68928    0.95536    1.000
    Si3397   Si       0.54137    0.69506    0.91202    1.000
    N3398    N        0.54374    0.78427    0.06999    1.000
    N3399    N        0.53798    0.85443    0.06978    1.000
    Si3400   Si       0.54046    0.81860    0.09592    1.000
    N3401    N        0.54559    0.80786    0.00474    1.000
    Si3402   Si       0.57395    0.87886    0.06434    1.000
    Si3403   Si       0.51912    0.79172    0.03429    1.000
    Si3404   Si       0.54314    0.89349    0.00158    1.000
    N3405    N        0.56534    0.91010    0.03465    1.000
    N3406    N        0.54356    0.00619    0.06407    1.000
    N3407    N        0.57780    0.95568    0.10004    1.000
    N3408    N        0.55411    0.86782    0.16331    1.000
    N3409    N        0.53431    0.79204    0.18254    1.000
    Si3410   Si       0.52994    0.83275    0.16658    1.000
    Si3411   Si       0.56768    0.77074    0.19887    1.000
    N3412    N        0.56457    0.76912    0.24380    1.000
    Si3413   Si       0.52314    0.89608    0.17890    1.000
    N3414    N        0.54153    0.91470    0.21535    1.000
    N3415    N        0.52503    0.92797    0.14562    1.000
    Si3416   Si       0.56110    0.94985    0.13756    1.000
    N3417    N        0.55030    0.99014    0.15047    1.000
    N3418    N        0.55369    0.81303    0.29495    1.000
    N3419    N        0.54675    0.85979    0.33832    1.000
    Si3420   Si       0.56114    0.81898    0.33908    1.000
    Si3421   Si       0.55081    0.85797    0.29386    1.000
    N3422    N        0.54005    0.78558    0.35578    1.000
    N3423    N        0.52403    0.86921    0.26300    1.000
    Si3424   Si       0.53576    0.95541    0.32393    1.000
    N3425    N        0.54551    0.95004    0.28182    1.000
    Si3426   Si       0.56031    0.98654    0.26003    1.000
    Si3427   Si       0.53102    0.91404    0.25779    1.000
    N3428    N        0.57288    0.96340    0.34338    1.000
    Si3429   Si       0.57021    0.77577    0.45337    1.000
    N3430    N        0.55349    0.81322    0.43938    1.000
    Si3431   Si       0.54036    0.85314    0.45605    1.000
    N3432    N        0.54501    0.77141    0.49081    1.000
    Si3433   Si       0.52597    0.98386    0.43760    1.000
    N3434    N        0.55412    0.99674    0.40708    1.000
    N3435    N        0.57199    0.88301    0.44742    1.000
    N3436    N        0.52478    0.93918    0.43742    1.000
    Si3437   Si       0.55479    0.91117    0.41889    1.000
    N3438    N        0.53404    0.99484    0.47893    1.000
    N3439    N        0.52128    0.89427    0.39615    1.000
    N3440    N        0.54640    0.86062    0.59018    1.000
    Si3441   Si       0.56520    0.77433    0.53139    1.000
    N3442    N        0.56695    0.79535    0.60720    1.000
    N3443    N        0.54470    0.84146    0.49798    1.000
    Si3444   Si       0.52144    0.80723    0.49680    1.000
    N3445    N        0.56712    0.99327    0.54000    1.000
    Si3446   Si       0.55548    0.89681    0.56419    1.000
    N3447    N        0.54703    0.00478    0.60232    1.000
    Si3448   Si       0.57316    0.00584    0.49877    1.000
    N3449    N        0.57835    0.92888    0.58621    1.000
    Si3450   Si       0.53394    0.00706    0.56205    1.000
    Si3451   Si       0.56845    0.79865    0.65130    1.000
    Si3452   Si       0.53180    0.86861    0.63252    1.000
    N3453    N        0.53376    0.82582    0.65549    1.000
    N3454    N        0.54050    0.78165    0.70976    1.000
    N3455    N        0.55352    0.85437    0.71223    1.000
    Si3456   Si       0.52840    0.82220    0.69959    1.000
    N3457    N        0.57294    0.88272    0.64857    1.000
    N3458    N        0.54229    0.92648    0.70745    1.000
    Si3459   Si       0.53909    0.93232    0.66459    1.000
    Si3460   Si       0.54195    0.96311    0.73067    1.000
    N3461    N        0.57385    0.98672    0.71089    1.000
    Si3462   Si       0.53650    0.88978    0.73093    1.000
    N3463    N        0.54530    0.81480    0.76717    1.000
    Si3464   Si       0.55047    0.81792    0.81113    1.000
    N3465    N        0.56635    0.78427    0.83096    1.000
    Si3466   Si       0.55420    0.77503    0.74967    1.000
    N3467    N        0.51958    0.84173    0.82841    1.000
    Si3468   Si       0.57404    0.84664    0.75919    1.000
    Si3469   Si       0.52211    0.88068    0.84760    1.000
    N3470    N        0.56419    0.88631    0.85745    1.000
    N3471    N        0.54512    0.95270    0.77428    1.000
    Si3472   Si       0.55507    0.99370    0.80091    1.000
    N3473    N        0.56479    0.89019    0.76278    1.000
    Si3474   Si       0.56088    0.79721    0.87089    1.000
    Si3475   Si       0.53366    0.77681    0.97622    1.000
    N3476    N        0.56390    0.76375    0.89927    1.000
    N3477    N        0.57301    0.86982    0.97909    1.000
    Si3478   Si       0.52108    0.76434    0.90447    1.000
    N3479    N        0.51627    0.79565    0.87412    1.000
    N3480    N        0.52625    0.91907    0.90469    1.000
    Si3481   Si       0.56754    0.91204    0.89333    1.000
    N3482    N        0.55075    0.99598    0.97707    1.000
    N3483    N        0.53363    0.92785    0.97894    1.000
    N3484    N        0.59304    0.08184    0.02292    1.000
    N3485    N        0.59322    0.02792    0.09681    1.000
    Si3486   Si       0.62423    0.05297    0.11158    1.000
    Si3487   Si       0.61066    0.12569    0.09417    1.000
    N3488    N        0.62516    0.08553    0.08123    1.000
    Si3489   Si       0.63165    0.07136    0.04022    1.000
    N3490    N        0.60802    0.18746    0.02286    1.000
    N3491    N        0.60171    0.19306    0.09344    1.000
    N3492    N        0.62661    0.25552    0.01111    1.000
    Si3493   Si       0.59898    0.09780    0.16517    1.000
    N3494    N        0.60518    0.03807    0.23434    1.000
    N3495    N        0.60862    0.10320    0.20835    1.000
    N3496    N        0.58869    0.12462    0.12990    1.000
    Si3497   Si       0.58164    0.06974    0.21946    1.000
    N3498    N        0.63162    0.07423    0.14894    1.000
    Si3499   Si       0.60513    0.21877    0.20621    1.000
    N3500    N        0.57531    0.24123    0.18661    1.000
    N3501    N        0.63038    0.24558    0.22954    1.000
    N3502    N        0.58239    0.19568    0.23519    1.000
    N3503    N        0.63401    0.20121    0.17871    1.000
    N3504    N        0.60221    0.06809    0.30274    1.000
    Si3505   Si       0.61958    0.10741    0.29457    1.000
    Si3506   Si       0.61607    0.03656    0.27622    1.000
    N3507    N        0.58901    0.04113    0.36213    1.000
    N3508    N        0.62664    0.12268    0.33585    1.000
    Si3509   Si       0.62702    0.02012    0.36707    1.000
    Si3510   Si       0.58977    0.13657    0.35710    1.000
    N3511    N        0.59239    0.13520    0.27300    1.000
    N3512    N        0.59589    0.18066    0.34798    1.000
    Si3513   Si       0.62388    0.24297    0.27288    1.000
    Si3514   Si       0.61189    0.17210    0.25665    1.000
    N3515    N        0.62627    0.20172    0.28582    1.000
    Si3516   Si       0.63348    0.19419    0.32766    1.000
    Si3517   Si       0.58662    0.07371    0.46618    1.000
    N3518    N        0.63067    0.08390    0.45637    1.000
    N3519    N        0.59518    0.13500    0.39947    1.000
    Si3520   Si       0.62272    0.16386    0.41871    1.000
    Si3521   Si       0.62734    0.23499    0.39434    1.000
    Si3522   Si       0.59917    0.18375    0.47708    1.000
    N3523    N        0.62375    0.15326    0.46024    1.000
    N3524    N        0.60909    0.20581    0.42560    1.000
    N3525    N        0.58157    0.24474    0.38876    1.000
    N3526    N        0.60164    0.07334    0.56625    1.000
    Si3527   Si       0.59219    0.09167    0.61301    1.000
    N3528    N        0.63146    0.10968    0.52179    1.000
    Si3529   Si       0.60068    0.12066    0.54887    1.000
    N3530    N        0.59925    0.13296    0.59118    1.000
    N3531    N        0.61786    0.21361    0.49840    1.000
    N3532    N        0.59463    0.21632    0.56205    1.000
    Si3533   Si       0.61797    0.22704    0.59787    1.000
    N3534    N        0.58714    0.16029    0.51853    1.000
    Si3535   Si       0.61786    0.18896    0.53647    1.000
    Si3536   Si       0.58186    0.16391    0.61664    1.000
    Si3537   Si       0.58552    0.01092    0.62307    1.000
    N3538    N        0.62346    0.11301    0.70996    1.000
    Si3539   Si       0.61047    0.05178    0.66891    1.000
    N3540    N        0.59121    0.05363    0.70826    1.000
    Si3541   Si       0.59701    0.08863    0.73413    1.000
    Si3542   Si       0.58667    0.01990    0.73583    1.000
    Si3543   Si       0.62408    0.12966    0.66844    1.000
    N3544    N        0.62755    0.09352    0.64073    1.000
    N3545    N        0.57885    0.05335    0.63700    1.000
    N3546    N        0.58160    0.14068    0.65388    1.000
    N3547    N        0.59990    0.20168    0.62608    1.000
    Si3548   Si       0.63507    0.23958    0.70990    1.000
    Si3549   Si       0.62208    0.20615    0.66252    1.000
    N3550    N        0.60257    0.21097    0.70179    1.000
    N3551    N        0.60739    0.06322    0.85242    1.000
    N3552    N        0.62233    0.08181    0.76849    1.000
    Si3553   Si       0.61745    0.10531    0.85478    1.000
    N3554    N        0.62612    0.01201    0.75221    1.000
    N3555    N        0.58594    0.13430    0.84358    1.000
    Si3556   Si       0.60065    0.17622    0.85296    1.000
    N3557    N        0.60803    0.15060    0.77970    1.000
    N3558    N        0.61119    0.25128    0.79231    1.000
    N3559    N        0.57942    0.19984    0.82302    1.000
    N3560    N        0.61023    0.02366    0.98228    1.000
    Si3561   Si       0.60136    0.12499    0.93137    1.000
    N3562    N        0.62485    0.12227    0.89428    1.000
    N3563    N        0.61494    0.09336    0.95795    1.000
    Si3564   Si       0.59196    0.06405    0.98293    1.000
    Si3565   Si       0.58465    0.18350    0.98626    1.000
    N3566    N        0.60942    0.15878    0.95967    1.000
    Si3567   Si       0.58829    0.26821    0.02815    1.000
    N3568    N        0.59936    0.26734    0.06977    1.000
    N3569    N        0.58256    0.31135    0.02141    1.000
    Si3570   Si       0.57793    0.28550    0.10311    1.000
    N3571    N        0.57585    0.37444    0.06248    1.000
    Si3572   Si       0.61659    0.38410    0.07173    1.000
    N3573    N        0.60427    0.47152    0.07356    1.000
    N3574    N        0.62309    0.41198    0.10476    1.000
    N3575    N        0.63427    0.41595    0.04422    1.000
    Si3576   Si       0.58223    0.50398    0.09438    1.000
    N3577    N        0.60048    0.31008    0.13035    1.000
    N3578    N        0.58987    0.34390    0.19277    1.000
    Si3579   Si       0.62086    0.40694    0.14800    1.000
    N3580    N        0.61034    0.47454    0.19858    1.000
    N3581    N        0.58521    0.41630    0.16874    1.000
    Si3582   Si       0.60145    0.30380    0.29620    1.000
    N3583    N        0.61681    0.30843    0.33808    1.000
    N3584    N        0.59880    0.37391    0.36244    1.000
    Si3585   Si       0.58494    0.33539    0.34706    1.000
    Si3586   Si       0.63026    0.36145    0.25758    1.000
    N3587    N        0.58633    0.26450    0.28398    1.000
    N3588    N        0.63097    0.32001    0.26860    1.000
    N3589    N        0.58955    0.37696    0.24970    1.000
    Si3590   Si       0.57877    0.41579    0.26210    1.000
    N3591    N        0.59126    0.49879    0.26015    1.000
    N3592    N        0.61316    0.43706    0.28054    1.000
    Si3593   Si       0.59660    0.47586    0.29583    1.000
    N3594    N        0.62234    0.49785    0.32440    1.000
    Si3595   Si       0.62897    0.31560    0.43265    1.000
    N3596    N        0.58636    0.31809    0.44031    1.000
    Si3597   Si       0.57641    0.28668    0.46850    1.000
    N3598    N        0.61025    0.45340    0.44480    1.000
    Si3599   Si       0.61201    0.44573    0.40353    1.000
    Si3600   Si       0.60673    0.49326    0.46718    1.000
    Si3601   Si       0.62093    0.43054    0.48215    1.000
    N3602    N        0.61525    0.26902    0.60690    1.000
    Si3603   Si       0.60065    0.37288    0.53473    1.000
    N3604    N        0.62761    0.33931    0.54190    1.000
    N3605    N        0.60835    0.28260    0.49827    1.000
    N3606    N        0.63758    0.36236    0.62231    1.000
    Si3607   Si       0.57920    0.28900    0.59483    1.000
    N3608    N        0.58715    0.39018    0.57400    1.000
    Si3609   Si       0.62443    0.39560    0.59834    1.000
    Si3610   Si       0.62177    0.47880    0.54526    1.000
    N3611    N        0.59192    0.45744    0.56554    1.000
    N3612    N        0.61954    0.46766    0.50363    1.000
    N3613    N        0.60813    0.49935    0.61106    1.000
    N3614    N        0.59741    0.39867    0.50001    1.000
    N3615    N        0.62228    0.27974    0.72331    1.000
    Si3616   Si       0.60120    0.34738    0.64082    1.000
    N3617    N        0.61078    0.31054    0.66145    1.000
    Si3618   Si       0.59247    0.29960    0.69996    1.000
    Si3619   Si       0.58175    0.37337    0.74037    1.000
    N3620    N        0.58507    0.38011    0.66314    1.000
    N3621    N        0.57850    0.33349    0.72482    1.000
    Si3622   Si       0.63905    0.28108    0.64305    1.000
    N3623    N        0.63224    0.43413    0.68744    1.000
    Si3624   Si       0.62829    0.42847    0.73060    1.000
    Si3625   Si       0.59739    0.42209    0.66390    1.000
    N3626    N        0.62438    0.38581    0.73891    1.000
    N3627    N        0.61289    0.42913    0.62239    1.000
    Si3628   Si       0.61409    0.26204    0.83536    1.000
    Si3629   Si       0.61512    0.32565    0.86576    1.000
    N3630    N        0.58118    0.33274    0.84255    1.000
    N3631    N        0.57788    0.38224    0.78423    1.000
    N3632    N        0.63611    0.30076    0.83744    1.000
    N3633    N        0.58750    0.43232    0.82906    1.000
    Si3634   Si       0.60187    0.41887    0.78914    1.000
    Si3635   Si       0.61439    0.45119    0.85678    1.000
    N3636    N        0.61188    0.49271    0.85155    1.000
    Si3637   Si       0.59438    0.48855    0.75477    1.000
    N3638    N        0.59242    0.44247    0.75192    1.000
    N3639    N        0.63363    0.50348    0.74733    1.000
    N3640    N        0.62293    0.29825    0.90118    1.000
    Si3641   Si       0.62545    0.27928    0.94200    1.000
    Si3642   Si       0.59446    0.32041    0.98052    1.000
    N3643    N        0.60964    0.36041    0.97990    1.000
    N3644    N        0.62768    0.36220    0.88596    1.000
    N3645    N        0.58324    0.28107    0.95690    1.000
    N3646    N        0.63941    0.30509    0.97283    1.000
    Si3647   Si       0.58384    0.46644    0.97161    1.000
    N3648    N        0.61218    0.49355    0.95236    1.000
    N3649    N        0.57581    0.39010    0.92391    1.000
    Si3650   Si       0.58453    0.39361    0.96820    1.000
    N3651    N        0.60416    0.43011    0.98462    1.000
    N3652    N        0.60053    0.43639    0.89334    1.000
    Si3653   Si       0.61775    0.39745    0.90473    1.000
    N3654    N        0.61447    0.60749    0.09899    1.000
    Si3655   Si       0.62095    0.56680    0.08298    1.000
    Si3656   Si       0.59820    0.58347    0.01122    1.000
    N3657    N        0.58530    0.54436    0.07887    1.000
    N3658    N        0.63119    0.57446    0.03989    1.000
    N3659    N        0.59571    0.65989    0.05227    1.000
    N3660    N        0.59594    0.73118    0.04703    1.000
    Si3661   Si       0.60801    0.69270    0.02892    1.000
    Si3662   Si       0.62793    0.64144    0.07447    1.000
    N3663    N        0.58415    0.75497    0.11629    1.000
    N3664    N        0.60979    0.56266    0.14614    1.000
    Si3665   Si       0.61639    0.60784    0.14333    1.000
    N3666    N        0.62787    0.62439    0.19032    1.000
    Si3667   Si       0.60546    0.51117    0.22288    1.000
    N3668    N        0.57992    0.53847    0.20178    1.000
    Si3669   Si       0.58418    0.72008    0.14479    1.000
    N3670    N        0.58876    0.67599    0.22316    1.000
    Si3671   Si       0.58826    0.63815    0.19719    1.000
    N3672    N        0.62511    0.72042    0.15756    1.000
    N3673    N        0.58087    0.63210    0.15300    1.000
    Si3674   Si       0.61643    0.53981    0.32408    1.000
    N3675    N        0.61688    0.56774    0.35759    1.000
    N3676    N        0.59802    0.57575    0.25706    1.000
    Si3677   Si       0.61060    0.69197    0.25855    1.000
    N3678    N        0.59017    0.73175    0.34850    1.000
    N3679    N        0.58786    0.66211    0.34180    1.000
    Si3680   Si       0.62843    0.66159    0.32543    1.000
    N3681    N        0.62911    0.65950    0.28153    1.000
    N3682    N        0.57715    0.70716    0.28375    1.000
    N3683    N        0.59210    0.61820    0.39713    1.000
    N3684    N        0.60063    0.53629    0.48314    1.000
    Si3685   Si       0.58495    0.57769    0.38482    1.000
    Si3686   Si       0.62603    0.61803    0.42252    1.000
    N3687    N        0.62812    0.59595    0.46066    1.000
    N3688    N        0.63464    0.71765    0.39976    1.000
    Si3689   Si       0.59273    0.72511    0.39157    1.000
    N3690    N        0.63039    0.65507    0.44240    1.000
    Si3691   Si       0.62864    0.63480    0.48235    1.000
    N3692    N        0.61317    0.71057    0.47426    1.000
    Si3693   Si       0.57839    0.69035    0.48968    1.000
    Si3694   Si       0.60060    0.59700    0.56723    1.000
    N3695    N        0.60223    0.56879    0.60131    1.000
    N3696    N        0.61618    0.51892    0.55223    1.000
    Si3697   Si       0.60474    0.54862    0.52240    1.000
    Si3698   Si       0.62607    0.53379    0.59049    1.000
    N3699    N        0.57801    0.57772    0.53769    1.000
    N3700    N        0.60590    0.75297    0.53358    1.000
    N3701    N        0.58859    0.72265    0.60098    1.000
    N3702    N        0.62110    0.68574    0.55112    1.000
    Si3703   Si       0.58932    0.71696    0.55743    1.000
    N3704    N        0.62090    0.66356    0.61698    1.000
    Si3705   Si       0.58335    0.64130    0.61323    1.000
    N3706    N        0.59081    0.64939    0.49928    1.000
    Si3707   Si       0.63011    0.74606    0.49500    1.000
    N3708    N        0.57806    0.63274    0.57125    1.000
    N3709    N        0.59621    0.56073    0.73823    1.000
    Si3710   Si       0.60818    0.67991    0.71899    1.000
    N3711    N        0.62563    0.64149    0.73675    1.000
    Si3712   Si       0.59906    0.69791    0.63842    1.000
    N3713    N        0.62794    0.72494    0.65570    1.000
    N3714    N        0.59522    0.67644    0.68007    1.000
    N3715    N        0.60774    0.60205    0.79310    1.000
    Si3716   Si       0.62702    0.58176    0.82567    1.000
    Si3717   Si       0.58639    0.51895    0.82527    1.000
    N3718    N        0.62417    0.53897    0.80889    1.000
    N3719    N        0.60133    0.58739    0.85905    1.000
    Si3720   Si       0.62900    0.54226    0.76449    1.000
    Si3721   Si       0.61285    0.60261    0.75057    1.000
    N3722    N        0.61033    0.68177    0.86238    1.000
    N3723    N        0.63193    0.74845    0.82262    1.000
    Si3724   Si       0.58931    0.75265    0.81079    1.000
    Si3725   Si       0.63658    0.71565    0.85019    1.000
    Si3726   Si       0.61891    0.53511    0.96282    1.000
    Si3727   Si       0.59938    0.60087    0.93493    1.000
    N3728    N        0.60039    0.61398    0.98168    1.000
    N3729    N        0.58628    0.54870    0.98843    1.000
    N3730    N        0.63377    0.57085    0.94120    1.000
    Si3731   Si       0.60071    0.74663    0.91545    1.000
    Si3732   Si       0.61930    0.68080    0.90563    1.000
    N3733    N        0.60967    0.64215    0.92648    1.000
    N3734    N        0.59727    0.68609    0.98944    1.000
    N3735    N        0.58499    0.70540    0.92175    1.000
    N3736    N        0.63089    0.75628    0.94446    1.000
    Si3737   Si       0.61558    0.65087    0.97066    1.000
    N3738    N        0.63410    0.73149    0.89108    1.000
    N3739    N        0.59658    0.85005    0.03948    1.000
    N3740    N        0.61886    0.79440    0.06889    1.000
    Si3741   Si       0.60592    0.79203    0.11250    1.000
    Si3742   Si       0.63184    0.83380    0.05642    1.000
    N3743    N        0.57889    0.82603    0.11634    1.000
    Si3744   Si       0.57979    0.83392    0.00231    1.000
    Si3745   Si       0.62979    0.75784    0.04827    1.000
    Si3746   Si       0.60132    0.93438    0.02629    1.000
    N3747    N        0.60257    0.97518    0.03739    1.000
    Si3748   Si       0.61163    0.92675    0.09532    1.000
    N3749    N        0.58919    0.89118    0.10286    1.000
    Si3750   Si       0.62922    0.00311    0.01564    1.000
    Si3751   Si       0.58212    0.98958    0.07331    1.000
    N3752    N        0.63057    0.91840    0.05672    1.000
    Si3753   Si       0.63149    0.81795    0.22008    1.000
    Si3754   Si       0.58793    0.86472    0.13787    1.000
    N3755    N        0.60393    0.79645    0.19331    1.000
    N3756    N        0.62701    0.86392    0.15502    1.000
    N3757    N        0.59220    0.93934    0.16576    1.000
    N3758    N        0.60619    0.89889    0.21886    1.000
    Si3759   Si       0.58037    0.93110    0.20764    1.000
    Si3760   Si       0.61937    0.99733    0.21609    1.000
    Si3761   Si       0.63201    0.95455    0.16142    1.000
    N3762    N        0.58476    0.97043    0.22572    1.000
    N3763    N        0.61300    0.77269    0.29075    1.000
    N3764    N        0.60367    0.80723    0.34893    1.000
    Si3765   Si       0.61364    0.76530    0.33453    1.000
    Si3766   Si       0.58550    0.79890    0.27064    1.000
    Si3767   Si       0.61492    0.87483    0.25427    1.000
    N3768    N        0.62182    0.87192    0.35122    1.000
    N3769    N        0.60519    0.83264    0.25153    1.000
    N3770    N        0.58465    0.88325    0.28569    1.000
    N3771    N        0.59168    0.00049    0.28534    1.000
    Si3772   Si       0.61539    0.89532    0.31363    1.000
    Si3773   Si       0.60386    0.97230    0.31412    1.000
    N3774    N        0.62790    0.93643    0.31059    1.000
    N3775    N        0.63493    0.99294    0.33640    1.000
    N3776    N        0.61218    0.77810    0.46545    1.000
    N3777    N        0.61660    0.84423    0.48539    1.000
    Si3778   Si       0.61318    0.88056    0.45992    1.000
    N3779    N        0.63583    0.87821    0.42359    1.000
    Si3780   Si       0.62268    0.89972    0.38669    1.000
    Si3781   Si       0.63283    0.95545    0.49057    1.000
    N3782    N        0.61785    0.99124    0.39877    1.000
    Si3783   Si       0.58230    0.96902    0.38611    1.000
    N3784    N        0.58726    0.92700    0.39841    1.000
    Si3785   Si       0.62748    0.99024    0.44074    1.000
    N3786    N        0.62335    0.91130    0.48793    1.000
    N3787    N        0.60162    0.98315    0.47500    1.000
    N3788    N        0.61833    0.84402    0.59357    1.000
    N3789    N        0.58588    0.81230    0.54279    1.000
    Si3790   Si       0.62616    0.78983    0.54456    1.000
    Si3791   Si       0.58399    0.84658    0.51439    1.000
    N3792    N        0.58831    0.88058    0.54105    1.000
    Si3793   Si       0.57727    0.83023    0.58303    1.000
    N3794    N        0.61800    0.94974    0.53558    1.000
    N3795    N        0.61123    0.99062    0.59416    1.000
    Si3796   Si       0.59195    0.96627    0.56601    1.000
    Si3797   Si       0.62120    0.90689    0.53125    1.000
    Si3798   Si       0.58756    0.86204    0.68427    1.000
    N3799    N        0.59720    0.82084    0.67174    1.000
    N3800    N        0.60975    0.82750    0.74357    1.000
    N3801    N        0.63510    0.90790    0.62058    1.000
    N3802    N        0.57571    0.94737    0.65046    1.000
    N3803    N        0.61666    0.88597    0.70727    1.000
    N3804    N        0.61076    0.00633    0.65996    1.000
    Si3805   Si       0.59757    0.96861    0.68031    1.000
    Si3806   Si       0.59393    0.91558    0.62481    1.000
    N3807    N        0.59196    0.76531    0.76782    1.000
    N3808    N        0.58419    0.84444    0.80576    1.000
    Si3809   Si       0.62690    0.78602    0.75237    1.000
    Si3810   Si       0.59846    0.87583    0.83073    1.000
    N3811    N        0.63576    0.86471    0.84850    1.000
    Si3812   Si       0.62705    0.97571    0.77425    1.000
    Si3813   Si       0.58152    0.92676    0.77969    1.000
    Si3814   Si       0.62394    0.95385    0.83386    1.000
    N3815    N        0.59485    0.97690    0.80430    1.000
    N3816    N        0.60675    0.91565    0.81375    1.000
    N3817    N        0.62099    0.99396    0.85683    1.000
    N3818    N        0.61365    0.94025    0.75267    1.000
    N3819    N        0.59123    0.82595    0.88529    1.000
    Si3820   Si       0.60952    0.76762    0.97969    1.000
    N3821    N        0.60990    0.81138    0.98233    1.000
    Si3822   Si       0.63462    0.83877    0.88315    1.000
    Si3823   Si       0.60696    0.89061    0.96009    1.000
    Si3824   Si       0.58117    0.99586    0.87243    1.000
    N3825    N        0.59937    0.90641    0.92067    1.000
    N3826    N        0.61637    0.92306    0.98736    1.000
    Si3827   Si       0.61839    0.94477    0.90394    1.000
    N3828    N        0.61823    0.97266    0.93933    1.000
    Si3829   Si       0.58773    0.00111    0.95039    1.000
    N3830    N        0.57931    0.95238    0.88246    1.000
    N3831    N        0.66009    0.02631    0.11003    1.000
    Si3832   Si       0.67592    0.01758    0.07040    1.000
    N3833    N        0.66006    0.08774    0.01275    1.000
    N3834    N        0.64659    0.03091    0.04251    1.000
    Si3835   Si       0.69219    0.11803    0.00747    1.000
    N3836    N        0.69658    0.09475    0.12150    1.000
    Si3837   Si       0.68427    0.13664    0.11919    1.000
    N3838    N        0.65451    0.21762    0.05788    1.000
    N3839    N        0.64793    0.14623    0.08863    1.000
    Si3840   Si       0.64313    0.18842    0.08749    1.000
    Si3841   Si       0.64098    0.21528    0.01800    1.000
    N3842    N        0.67302    0.19946    0.12081    1.000
    Si3843   Si       0.64201    0.25568    0.07688    1.000
    N3844    N        0.64187    0.25938    0.12104    1.000
    Si3845   Si       0.64660    0.11541    0.22636    1.000
    Si3846   Si       0.67318    0.08519    0.16058    1.000
    N3847    N        0.67746    0.10158    0.20081    1.000
    Si3848   Si       0.66834    0.01404    0.15133    1.000
    N3849    N        0.69236    0.04610    0.16659    1.000
    N3850    N        0.67836    0.24783    0.17694    1.000
    N3851    N        0.64282    0.15756    0.22939    1.000
    Si3852   Si       0.66067    0.16951    0.18958    1.000
    Si3853   Si       0.65130    0.22679    0.14819    1.000
    N3854    N        0.66058    0.14003    0.15548    1.000
    N3855    N        0.65987    0.03285    0.28111    1.000
    N3856    N        0.64842    0.09710    0.26482    1.000
    Si3857   Si       0.68969    0.07207    0.28133    1.000
    N3858    N        0.68821    0.10303    0.35764    1.000
    Si3859   Si       0.66217    0.13760    0.35672    1.000
    N3860    N        0.67185    0.17232    0.33083    1.000
    Si3861   Si       0.67089    0.25452    0.33206    1.000
    N3862    N        0.63876    0.23090    0.34987    1.000
    Si3863   Si       0.65489    0.05951    0.42995    1.000
    N3864    N        0.65435    0.04726    0.38596    1.000
    N3865    N        0.65278    0.02332    0.45306    1.000
    Si3866   Si       0.64270    0.11653    0.48035    1.000
    Si3867   Si       0.67180    0.02236    0.49277    1.000
    N3868    N        0.68098    0.13384    0.49307    1.000
    N3869    N        0.69490    0.07553    0.42302    1.000
    N3870    N        0.67178    0.25415    0.47194    1.000
    N3871    N        0.65888    0.15621    0.39695    1.000
    Si3872   Si       0.68951    0.18449    0.40846    1.000
    N3873    N        0.67117    0.22289    0.40672    1.000
    N3874    N        0.65400    0.04394    0.59777    1.000
    N3875    N        0.65408    0.04132    0.52699    1.000
    Si3876   Si       0.64581    0.06389    0.56054    1.000
    N3877    N        0.67834    0.09729    0.56308    1.000
    Si3878   Si       0.66813    0.13054    0.53628    1.000
    N3879    N        0.65994    0.21768    0.59611    1.000
    Si3880   Si       0.67761    0.17735    0.59083    1.000
    N3881    N        0.64977    0.16594    0.55523    1.000
    N3882    N        0.66630    0.24493    0.53316    1.000
    Si3883   Si       0.68979    0.23435    0.56672    1.000
    Si3884   Si       0.63898    0.25033    0.49992    1.000
    N3885    N        0.68547    0.11975    0.68663    1.000
    Si3886   Si       0.66113    0.06751    0.63240    1.000
    Si3887   Si       0.66419    0.10550    0.71979    1.000
    N3888    N        0.65550    0.04374    0.66940    1.000
    N3889    N        0.67167    0.06299    0.73079    1.000
    Si3890   Si       0.68557    0.03952    0.69945    1.000
    N3891    N        0.64372    0.16830    0.66268    1.000
    N3892    N        0.64431    0.24460    0.66859    1.000
    N3893    N        0.66009    0.22045    0.73863    1.000
    Si3894   Si       0.68598    0.16232    0.66764    1.000
    N3895    N        0.66113    0.03474    0.80668    1.000
    N3896    N        0.64833    0.10796    0.82456    1.000
    Si3897   Si       0.64794    0.04743    0.76803    1.000
    N3898    N        0.67209    0.13008    0.75423    1.000
    Si3899   Si       0.63834    0.03250    0.84650    1.000
    Si3900   Si       0.68934    0.11000    0.83918    1.000
    Si3901   Si       0.63909    0.12029    0.78445    1.000
    Si3902   Si       0.65035    0.23538    0.77828    1.000
    N3903    N        0.67580    0.21347    0.80587    1.000
    Si3904   Si       0.66750    0.21050    0.84849    1.000
    N3905    N        0.64265    0.24290    0.86326    1.000
    N3906    N        0.64363    0.17654    0.85593    1.000
    N3907    N        0.69266    0.13403    0.87543    1.000
    N3908    N        0.66855    0.03426    0.87612    1.000
    N3909    N        0.68386    0.06731    0.94217    1.000
    Si3910   Si       0.65652    0.08903    0.96928    1.000
    N3911    N        0.67193    0.12993    0.97051    1.000
    N3912    N        0.66852    0.17855    0.91968    1.000
    Si3913   Si       0.65309    0.16651    0.95854    1.000
    Si3914   Si       0.65693    0.15145    0.88950    1.000
    N3915    N        0.65970    0.20407    0.98083    1.000
    Si3916   Si       0.68227    0.23581    0.96067    1.000
    N3917    N        0.65843    0.25414    0.92978    1.000
    N3918    N        0.66268    0.28597    0.05459    1.000
    N3919    N        0.67070    0.33242    0.01519    1.000
    Si3920   Si       0.67184    0.32833    0.05742    1.000
    N3921    N        0.64402    0.35337    0.08005    1.000
    Si3922   Si       0.65983    0.28754    0.00979    1.000
    Si3923   Si       0.66247    0.36051    0.11862    1.000
    N3924    N        0.68040    0.45964    0.07651    1.000
    Si3925   Si       0.68875    0.47326    0.03534    1.000
    Si3926   Si       0.64215    0.42370    0.00298    1.000
    N3927    N        0.69332    0.39104    0.11626    1.000
    Si3928   Si       0.63868    0.44519    0.07667    1.000
    Si3929   Si       0.63337    0.34582    0.18968    1.000
    Si3930   Si       0.64127    0.29849    0.14077    1.000
    N3931    N        0.64024    0.30349    0.18378    1.000
    N3932    N        0.67807    0.32111    0.12895    1.000
    Si3933   Si       0.65815    0.27058    0.20858    1.000
    N3934    N        0.65352    0.36809    0.22217    1.000
    N3935    N        0.68697    0.28969    0.23310    1.000
    N3936    N        0.63690    0.36845    0.15310    1.000
    N3937    N        0.64025    0.49453    0.14368    1.000
    N3938    N        0.68415    0.48386    0.20065    1.000
    N3939    N        0.65304    0.43036    0.16431    1.000
    Si3940   Si       0.69042    0.38971    0.22300    1.000
    Si3941   Si       0.64782    0.46974    0.17789    1.000
    N3942    N        0.68344    0.42953    0.24816    1.000
    Si3943   Si       0.67121    0.30182    0.27378    1.000
    N3944    N        0.67807    0.28862    0.35699    1.000
    Si3945   Si       0.68669    0.36658    0.31066    1.000
    N3946    N        0.65569    0.26604    0.29232    1.000
    N3947    N        0.67690    0.37251    0.35262    1.000
    N3948    N        0.65360    0.38301    0.28850    1.000
    N3949    N        0.67223    0.45243    0.31308    1.000
    Si3950   Si       0.65598    0.47906    0.34436    1.000
    Si3951   Si       0.65414    0.42570    0.28231    1.000
    N3952    N        0.69537    0.50830    0.33303    1.000
    Si3953   Si       0.64177    0.30285    0.37364    1.000
    N3954    N        0.65600    0.32372    0.46374    1.000
    N3955    N        0.63703    0.27710    0.41075    1.000
    N3956    N        0.64233    0.33952    0.39829    1.000
    Si3957   Si       0.69148    0.33148    0.48786    1.000
    Si3958   Si       0.67484    0.26025    0.42865    1.000
    Si3959   Si       0.64116    0.37574    0.37534    1.000
    N3960    N        0.69107    0.45688    0.43038    1.000
    N3961    N        0.63914    0.41196    0.39947    1.000
    Si3962   Si       0.69127    0.40190    0.49537    1.000
    Si3963   Si       0.66694    0.48994    0.41935    1.000
    N3964    N        0.65752    0.41119    0.46943    1.000
    Si3965   Si       0.67062    0.41724    0.42853    1.000
    N3966    N        0.64208    0.47577    0.38663    1.000
    Si3967   Si       0.66556    0.35835    0.55142    1.000
    N3968    N        0.68706    0.36476    0.51445    1.000
    N3969    N        0.65497    0.39632    0.56620    1.000
    Si3970   Si       0.68344    0.42848    0.56151    1.000
    N3971    N        0.65537    0.46457    0.57001    1.000
    Si3972   Si       0.63463    0.46589    0.61003    1.000
    Si3973   Si       0.67726    0.34172    0.62216    1.000
    N3974    N        0.67441    0.32245    0.71663    1.000
    N3975    N        0.67704    0.30067    0.63439    1.000
    Si3976   Si       0.64783    0.30521    0.74615    1.000
    Si3977   Si       0.67164    0.48771    0.73730    1.000
    N3978    N        0.68208    0.48707    0.69523    1.000
    Si3979   Si       0.67180    0.44971    0.67458    1.000
    N3980    N        0.67041    0.46549    0.63396    1.000
    N3981    N        0.66643    0.44323    0.74414    1.000
    Si3982   Si       0.66606    0.30769    0.80734    1.000
    N3983    N        0.67036    0.27606    0.77370    1.000
    N3984    N        0.64701    0.33513    0.77989    1.000
    Si3985   Si       0.65292    0.37711    0.77047    1.000
    N3986    N        0.69130    0.37809    0.74931    1.000
    Si3987   Si       0.67186    0.43762    0.81940    1.000
    N3988    N        0.67494    0.48258    0.81287    1.000
    N3989    N        0.65735    0.43955    0.85927    1.000
    N3990    N        0.64405    0.41262    0.79784    1.000
    Si3991   Si       0.65727    0.27418    0.88971    1.000
    Si3992   Si       0.65344    0.35009    0.97897    1.000
    Si3993   Si       0.66967    0.34869    0.89810    1.000
    N3994    N        0.67615    0.35228    0.93989    1.000
    N3995    N        0.68322    0.30898    0.88428    1.000
    N3996    N        0.69193    0.26473    0.99132    1.000
    N3997    N        0.65471    0.41342    0.92386    1.000
    Si3998   Si       0.67569    0.44401    0.89986    1.000
    N3999    N        0.67543    0.48170    0.92231    1.000
    Si4000   Si       0.65681    0.48382    0.96247    1.000
    Si4001   Si       0.68651    0.39609    0.94813    1.000
    N4002    N        0.66857    0.39282    0.98853    1.000
    N4003    N        0.66482    0.46133    0.99846    1.000
    N4004    N        0.65410    0.54394    0.09913    1.000
    Si4005   Si       0.67089    0.59231    0.03411    1.000
    Si4006   Si       0.69115    0.53807    0.07641    1.000
    N4007    N        0.69123    0.51669    0.03962    1.000
    N4008    N        0.65910    0.63192    0.04399    1.000
    Si4009   Si       0.69422    0.53632    0.00036    1.000
    Si4010   Si       0.66789    0.70222    0.07032    1.000
    N4011    N        0.65057    0.67171    0.09709    1.000
    N4012    N        0.65632    0.74169    0.08122    1.000
    N4013    N        0.65022    0.69527    0.03183    1.000
    Si4014   Si       0.67370    0.66089    0.01440    1.000
    N4015    N        0.66220    0.61265    0.14001    1.000
    N4016    N        0.67643    0.54932    0.16746    1.000
    Si4017   Si       0.67913    0.52746    0.20513    1.000
    Si4018   Si       0.64662    0.53701    0.14051    1.000
    N4019    N        0.64267    0.53365    0.22838    1.000
    Si4020   Si       0.69285    0.58731    0.15712    1.000
    N4021    N        0.69088    0.74601    0.13606    1.000
    Si4022   Si       0.67639    0.65203    0.12359    1.000
    Si4023   Si       0.66775    0.71846    0.16246    1.000
    Si4024   Si       0.67926    0.70637    0.23550    1.000
    N4025    N        0.68136    0.73048    0.20085    1.000
    Si4026   Si       0.66748    0.64207    0.18928    1.000
    N4027    N        0.67635    0.67511    0.16102    1.000
    N4028    N        0.67175    0.66435    0.22659    1.000
    Si4029   Si       0.65202    0.59202    0.35717    1.000
    Si4030   Si       0.68810    0.54645    0.31285    1.000
    N4031    N        0.64847    0.55150    0.29697    1.000
    N4032    N        0.68732    0.56818    0.35091    1.000
    N4033    N        0.65374    0.62851    0.33416    1.000
    N4034    N        0.66389    0.59916    0.25106    1.000
    Si4035   Si       0.63873    0.56477    0.25814    1.000
    Si4036   Si       0.66386    0.64204    0.26212    1.000
    N4037    N        0.65911    0.69047    0.33971    1.000
    N4038    N        0.64164    0.71955    0.25653    1.000
    Si4039   Si       0.69006    0.65723    0.33448    1.000
    Si4040   Si       0.66472    0.72259    0.36834    1.000
    Si4041   Si       0.64838    0.76006    0.27045    1.000
    N4042    N        0.68686    0.75510    0.29257    1.000
    N4043    N        0.64544    0.51344    0.44941    1.000
    N4044    N        0.68709    0.56135    0.46848    1.000
    N4045    N        0.65993    0.60421    0.40013    1.000
    Si4046   Si       0.64308    0.55422    0.47230    1.000
    N4047    N        0.69527    0.52105    0.40373    1.000
    Si4048   Si       0.69448    0.66898    0.46893    1.000
    N4049    N        0.67882    0.70390    0.44749    1.000
    Si4050   Si       0.63641    0.69748    0.43871    1.000
    N4051    N        0.66984    0.54813    0.58467    1.000
    Si4052   Si       0.66516    0.57754    0.55417    1.000
    N4053    N        0.64636    0.56306    0.51800    1.000
    N4054    N        0.64046    0.61270    0.56535    1.000
    N4055    N        0.68012    0.66814    0.56784    1.000
    N4056    N        0.66524    0.72536    0.51442    1.000
    Si4057   Si       0.65958    0.68525    0.53092    1.000
    N4058    N        0.68313    0.73367    0.60185    1.000
    N4059    N        0.66539    0.65571    0.49921    1.000
    Si4060   Si       0.64026    0.65389    0.57809    1.000
    Si4061   Si       0.68791    0.59861    0.73985    1.000
    N4062    N        0.68661    0.73355    0.67114    1.000
    Si4063   Si       0.66154    0.74504    0.63886    1.000
    Si4064   Si       0.65142    0.73195    0.69611    1.000
    N4065    N        0.64492    0.70083    0.72605    1.000
    N4066    N        0.69190    0.63841    0.72514    1.000
    Si4067   Si       0.66336    0.66542    0.74715    1.000
    N4068    N        0.66767    0.59668    0.83154    1.000
    N4069    N        0.67268    0.52987    0.86560    1.000
    N4070    N        0.65193    0.57842    0.75273    1.000
    Si4071   Si       0.64790    0.50979    0.83398    1.000
    Si4072   Si       0.69116    0.62592    0.81018    1.000
    Si4073   Si       0.69283    0.56489    0.84961    1.000
    N4074    N        0.67352    0.66111    0.78902    1.000
    N4075    N        0.67793    0.70337    0.84455    1.000
    N4076    N        0.68938    0.72962    0.78813    1.000
    N4077    N        0.65597    0.52378    0.98201    1.000
    Si4078   Si       0.67373    0.58038    0.95134    1.000
    N4079    N        0.68567    0.57900    0.99466    1.000
    N4080    N        0.69286    0.61374    0.93078    1.000
    Si4081   Si       0.69334    0.51612    0.90269    1.000
    Si4082   Si       0.69433    0.70107    0.88288    1.000
    N4083    N        0.69066    0.73142    0.96371    1.000
    Si4084   Si       0.66541    0.73192    0.92703    1.000
    N4085    N        0.66665    0.68413    0.91279    1.000
    Si4086   Si       0.68525    0.65469    0.94201    1.000
    N4087    N        0.65775    0.65415    0.97537    1.000
    N4088    N        0.66296    0.82754    0.02674    1.000
    N4089    N        0.65163    0.85872    0.08528    1.000
    Si4090   Si       0.67250    0.77183    0.10727    1.000
    N4091    N        0.64262    0.76240    0.00754    1.000
    Si4092   Si       0.66856    0.89856    0.06801    1.000
    Si4093   Si       0.68183    0.95613    0.10753    1.000
    N4094    N        0.68660    0.97582    0.06952    1.000
    N4095    N        0.66002    0.97324    0.00302    1.000
    N4096    N        0.68860    0.91335    0.10280    1.000
    Si4097   Si       0.69422    0.96227    0.02957    1.000
    N4098    N        0.65863    0.79369    0.24409    1.000
    N4099    N        0.64524    0.80037    0.12750    1.000
    Si4100   Si       0.65472    0.84405    0.12770    1.000
    N4101    N        0.65408    0.85572    0.21577    1.000
    Si4102   Si       0.69063    0.87454    0.23146    1.000
    Si4103   Si       0.63846    0.88939    0.18981    1.000
    N4104    N        0.63944    0.95280    0.11905    1.000
    N4105    N        0.68570    0.91615    0.24564    1.000
    Si4106   Si       0.68065    0.94673    0.21556    1.000
    N4107    N        0.65789    0.92706    0.18378    1.000
    N4108    N        0.65579    0.97689    0.23720    1.000
    N4109    N        0.63361    0.99706    0.17429    1.000
    N4110    N        0.66937    0.82319    0.31935    1.000
    Si4111   Si       0.68404    0.78053    0.32770    1.000
    Si4112   Si       0.68342    0.85728    0.29738    1.000
    N4113    N        0.65419    0.75931    0.34914    1.000
    Si4114   Si       0.64016    0.83094    0.35126    1.000
    N4115    N        0.64663    0.87977    0.28487    1.000
    N4116    N        0.68540    0.95920    0.30522    1.000
    Si4117   Si       0.66184    0.95614    0.34229    1.000
    Si4118   Si       0.66983    0.92013    0.28675    1.000
    Si4119   Si       0.67422    0.99310    0.27184    1.000
    Si4120   Si       0.63902    0.81028    0.47560    1.000
    N4121    N        0.67381    0.81954    0.45118    1.000
    N4122    N        0.67109    0.83344    0.38167    1.000
    Si4123   Si       0.66991    0.85086    0.42088    1.000
    N4124    N        0.69048    0.87559    0.49412    1.000
    Si4125   Si       0.67497    0.94670    0.40635    1.000
    N4126    N        0.65254    0.92603    0.37418    1.000
    N4127    N        0.65251    0.95404    0.44167    1.000
    N4128    N        0.68824    0.97473    0.37341    1.000
    N4129    N        0.65499    0.79056    0.57567    1.000
    N4130    N        0.65259    0.78781    0.50924    1.000
    Si4131   Si       0.64766    0.81575    0.61013    1.000
    Si4132   Si       0.64904    0.87646    0.59456    1.000
    Si4133   Si       0.68957    0.76130    0.51203    1.000
    N4134    N        0.67850    0.84765    0.61322    1.000
    Si4135   Si       0.69409    0.77017    0.58183    1.000
    N4136    N        0.65664    0.89425    0.55468    1.000
    N4137    N        0.67895    0.97521    0.57290    1.000
    Si4138   Si       0.65268    0.99874    0.59767    1.000
    N4139    N        0.66835    0.97952    0.50195    1.000
    Si4140   Si       0.69439    0.89100    0.53389    1.000
    Si4141   Si       0.69556    0.97027    0.53422    1.000
    Si4142   Si       0.63831    0.85380    0.72684    1.000
    N4143    N        0.65396    0.78760    0.64223    1.000
    N4144    N        0.66085    0.83212    0.69473    1.000
    Si4145   Si       0.63706    0.80187    0.67981    1.000
    N4146    N        0.63786    0.77094    0.71087    1.000
    Si4147   Si       0.66086    0.93570    0.64718    1.000
    Si4148   Si       0.65283    0.99797    0.66976    1.000
    N4149    N        0.66753    0.97806    0.63397    1.000
    N4150    N        0.68289    0.99662    0.70273    1.000
    Si4151   Si       0.63601    0.92363    0.71939    1.000
    N4152    N        0.67918    0.93341    0.73227    1.000
    N4153    N        0.63651    0.94704    0.68195    1.000
    N4154    N        0.66035    0.79217    0.77893    1.000
    N4155    N        0.67269    0.86144    0.75352    1.000
    Si4156   Si       0.68976    0.82541    0.76923    1.000
    Si4157   Si       0.66908    0.76314    0.80686    1.000
    N4158    N        0.65901    0.96823    0.80528    1.000
    Si4159   Si       0.68988    0.99987    0.80262    1.000
    Si4160   Si       0.66550    0.89477    0.86490    1.000
    N4161    N        0.64350    0.93075    0.87057    1.000
    N4162    N        0.64224    0.86500    0.96471    1.000
    N4163    N        0.66839    0.86946    0.90077    1.000
    N4164    N        0.65642    0.80391    0.88766    1.000
    N4165    N        0.68518    0.80328    0.97055    1.000
    Si4166   Si       0.65005    0.82778    0.98596    1.000
    Si4167   Si       0.68068    0.76595    0.98888    1.000
    Si4168   Si       0.69079    0.78302    0.88095    1.000
    Si4169   Si       0.67252    0.88416    0.93987    1.000
    Si4170   Si       0.64411    0.95268    0.96765    1.000
    N4171    N        0.67350    0.92981    0.94455    1.000
    N4172    N        0.71447    0.03981    0.06723    1.000
    Si4173   Si       0.72469    0.07421    0.09383    1.000
    N4174    N        0.74068    0.10273    0.06346    1.000
    Si4175   Si       0.74309    0.01942    0.04076    1.000
    Si4176   Si       0.75189    0.25028    0.12101    1.000
    N4177    N        0.71816    0.15759    0.10501    1.000
    Si4178   Si       0.73283    0.14644    0.06482    1.000
    N4179    N        0.74223    0.22234    0.08732    1.000
    Si4180   Si       0.71696    0.19827    0.11629    1.000
    N4181    N        0.70029    0.14748    0.03605    1.000
    Si4182   Si       0.73770    0.04842    0.16745    1.000
    Si4183   Si       0.71731    0.09650    0.21760    1.000
    N4184    N        0.74939    0.08159    0.19097    1.000
    N4185    N        0.70884    0.06247    0.24323    1.000
    N4186    N        0.75052    0.05625    0.12539    1.000
    N4187    N        0.75351    0.01287    0.18449    1.000
    N4188    N        0.70188    0.18377    0.19479    1.000
    Si4189   Si       0.71358    0.22563    0.18434    1.000
    Si4190   Si       0.73941    0.16623    0.21019    1.000
    N4191    N        0.74070    0.25608    0.20435    1.000
    N4192    N        0.72833    0.13389    0.23474    1.000
    N4193    N        0.73376    0.22081    0.14783    1.000
    N4194    N        0.72289    0.04689    0.30042    1.000
    Si4195   Si       0.73427    0.03263    0.26043    1.000
    N4196    N        0.70706    0.10892    0.29229    1.000
    Si4197   Si       0.74548    0.03132    0.33255    1.000
    Si4198   Si       0.73624    0.13708    0.27905    1.000
    Si4199   Si       0.71201    0.18902    0.33214    1.000
    N4200    N        0.73768    0.17707    0.29894    1.000
    N4201    N        0.70805    0.23068    0.32685    1.000
    Si4202   Si       0.74745    0.24841    0.32781    1.000
    N4203    N        0.73335    0.04544    0.37113    1.000
    Si4204   Si       0.72596    0.06939    0.45224    1.000
    N4205    N        0.73954    0.11002    0.46240    1.000
    N4206    N        0.70892    0.04217    0.48252    1.000
    Si4207   Si       0.69456    0.06674    0.37969    1.000
    N4208    N        0.72096    0.18165    0.37376    1.000
    Si4209   Si       0.71776    0.14659    0.47365    1.000
    Si4210   Si       0.75129    0.17260    0.40190    1.000
    N4211    N        0.72110    0.16960    0.43640    1.000
    Si4212   Si       0.71570    0.09290    0.58722    1.000
    N4213    N        0.74360    0.06204    0.57613    1.000
    Si4214   Si       0.74622    0.01913    0.56639    1.000
    N4215    N        0.74893    0.12027    0.59563    1.000
    Si4216   Si       0.74178    0.01325    0.49305    1.000
    Si4217   Si       0.73729    0.19455    0.53785    1.000
    N4218    N        0.71024    0.19419    0.57020    1.000
    N4219    N        0.72797    0.23374    0.52168    1.000
    N4220    N        0.74036    0.16397    0.50674    1.000
    N4221    N        0.72235    0.05356    0.68135    1.000
    Si4222   Si       0.71508    0.09449    0.66682    1.000
    N4223    N        0.74471    0.12613    0.66630    1.000
    N4224    N        0.74319    0.11862    0.74251    1.000
    N4225    N        0.70030    0.08607    0.62756    1.000
    N4226    N        0.73483    0.25144    0.64927    1.000
    N4227    N        0.71968    0.24825    0.72884    1.000
    N4228    N        0.69774    0.15900    0.62595    1.000
    N4229    N        0.70705    0.19433    0.68777    1.000
    Si4230   Si       0.69983    0.20928    0.72671    1.000
    Si4231   Si       0.74097    0.14978    0.62777    1.000
    Si4232   Si       0.74140    0.21320    0.66748    1.000
    Si4233   Si       0.73916    0.05074    0.83101    1.000
    N4234    N        0.71152    0.07499    0.85467    1.000
    N4235    N        0.74229    0.05893    0.78752    1.000
    Si4236   Si       0.74948    0.01983    0.76789    1.000
    N4237    N        0.71913    0.01022    0.83337    1.000
    N4238    N        0.71295    0.12820    0.80729    1.000
    N4239    N        0.71558    0.18422    0.75869    1.000
    Si4240   Si       0.71281    0.14001    0.76345    1.000
    Si4241   Si       0.71796    0.20447    0.79838    1.000
    N4242    N        0.73238    0.24676    0.79373    1.000
    N4243    N        0.75152    0.18415    0.82030    1.000
    Si4244   Si       0.75265    0.14030    0.82577    1.000
    N4245    N        0.70458    0.21272    0.87023    1.000
    Si4246   Si       0.72436    0.07396    0.95675    1.000
    N4247    N        0.73489    0.09318    0.91688    1.000
    N4248    N        0.72500    0.02812    0.90142    1.000
    Si4249   Si       0.73316    0.12634    0.89028    1.000
    Si4250   Si       0.69961    0.06330    0.89832    1.000
    Si4251   Si       0.75181    0.01076    0.92784    1.000
    N4252    N        0.72726    0.09687    0.99442    1.000
    N4253    N        0.71819    0.22351    0.93866    1.000
    Si4254   Si       0.70845    0.19513    0.90775    1.000
    N4255    N        0.73942    0.16409    0.91112    1.000
    N4256    N        0.71006    0.33841    0.07305    1.000
    Si4257   Si       0.72594    0.37434    0.09435    1.000
    N4258    N        0.73514    0.28810    0.11184    1.000
    N4259    N        0.73756    0.28243    0.03833    1.000
    Si4260   Si       0.74353    0.30795    0.07223    1.000
    Si4261   Si       0.73454    0.25971    0.00370    1.000
    N4262    N        0.73106    0.46520    0.02915    1.000
    Si4263   Si       0.71516    0.47328    0.10380    1.000
    N4264    N        0.75081    0.39871    0.07077    1.000
    N4265    N        0.74808    0.35164    0.12364    1.000
    N4266    N        0.72465    0.36685    0.23754    1.000
    Si4267   Si       0.73770    0.36400    0.19205    1.000
    Si4268   Si       0.72863    0.29444    0.21748    1.000
    Si4269   Si       0.72251    0.31921    0.13877    1.000
    N4270    N        0.73166    0.32092    0.18238    1.000
    N4271    N        0.70831    0.39386    0.18438    1.000
    Si4272   Si       0.72202    0.47719    0.17793    1.000
    N4273    N        0.71297    0.45300    0.14386    1.000
    N4274    N        0.74087    0.45706    0.21274    1.000
    Si4275   Si       0.70360    0.46380    0.23404    1.000
    Si4276   Si       0.69161    0.41474    0.15150    1.000
    Si4277   Si       0.73586    0.34666    0.27406    1.000
    N4278    N        0.74419    0.28380    0.35011    1.000
    N4279    N        0.69818    0.32929    0.29257    1.000
    N4280    N        0.74926    0.30794    0.25357    1.000
    N4281    N        0.72422    0.38734    0.30380    1.000
    N4282    N        0.74589    0.45676    0.31738    1.000
    Si4283   Si       0.70853    0.47569    0.30680    1.000
    N4284    N        0.71160    0.49162    0.26547    1.000
    N4285    N        0.74640    0.40708    0.36369    1.000
    Si4286   Si       0.75327    0.41474    0.32224    1.000
    Si4287   Si       0.71471    0.29879    0.37702    1.000
    Si4288   Si       0.71338    0.38007    0.37549    1.000
    N4289    N        0.72342    0.33925    0.46048    1.000
    N4290    N        0.72709    0.33901    0.38203    1.000
    N4291    N        0.70921    0.28510    0.41893    1.000
    Si4292   Si       0.73937    0.30115    0.44490    1.000
    Si4293   Si       0.73384    0.37652    0.44129    1.000
    N4294    N        0.73887    0.27226    0.47546    1.000
    N4295    N        0.70399    0.39486    0.41417    1.000
    N4296    N        0.74827    0.46861    0.48119    1.000
    N4297    N        0.72778    0.40969    0.47267    1.000
    Si4298   Si       0.72967    0.44598    0.44708    1.000
    Si4299   Si       0.71631    0.30473    0.55786    1.000
    N4300    N        0.70883    0.26929    0.58356    1.000
    Si4301   Si       0.73895    0.34453    0.60149    1.000
    N4302    N        0.69947    0.30068    0.51859    1.000
    Si4303   Si       0.70092    0.26004    0.50173    1.000
    N4304    N        0.69228    0.33711    0.58022    1.000
    Si4305   Si       0.74196    0.43354    0.50924    1.000
    N4306    N        0.71497    0.42967    0.59064    1.000
    N4307    N        0.72653    0.49745    0.59070    1.000
    Si4308   Si       0.70776    0.46530    0.61342    1.000
    N4309    N        0.70090    0.43322    0.52355    1.000
    Si4310   Si       0.75622    0.41745    0.58486    1.000
    Si4311   Si       0.71340    0.27971    0.62464    1.000
    N4312    N        0.74625    0.31028    0.62758    1.000
    N4313    N        0.71108    0.36400    0.63720    1.000
    Si4314   Si       0.70995    0.34266    0.73194    1.000
    N4315    N        0.73719    0.35726    0.70223    1.000
    N4316    N        0.69829    0.41500    0.68898    1.000
    N4317    N        0.73075    0.46885    0.64956    1.000
    Si4318   Si       0.72682    0.38796    0.67166    1.000
    Si4319   Si       0.71624    0.50101    0.67286    1.000
    Si4320   Si       0.70051    0.41660    0.73250    1.000
    Si4321   Si       0.74034    0.32663    0.79522    1.000
    Si4322   Si       0.71456    0.32848    0.86142    1.000
    N4323    N        0.72656    0.31060    0.75643    1.000
    Si4324   Si       0.71269    0.27128    0.76344    1.000
    N4325    N        0.70335    0.32123    0.82031    1.000
    N4326    N        0.71060    0.41418    0.81786    1.000
    Si4327   Si       0.74174    0.40287    0.79065    1.000
    Si4328   Si       0.72300    0.40487    0.86016    1.000
    N4329    N        0.73457    0.43011    0.75421    1.000
    N4330    N        0.74890    0.49191    0.79361    1.000
    Si4331   Si       0.70657    0.50800    0.79653    1.000
    N4332    N        0.69969    0.37017    0.87351    1.000
    N4333    N        0.75540    0.26915    0.96773    1.000
    N4334    N        0.71976    0.42152    0.95447    1.000
    N4335    N        0.71639    0.43263    0.89171    1.000
    Si4336   Si       0.74777    0.42550    0.92330    1.000
    Si4337   Si       0.72582    0.60163    0.09157    1.000
    N4338    N        0.71428    0.51669    0.10592    1.000
    N4339    N        0.70013    0.58026    0.06343    1.000
    N4340    N        0.71495    0.65166    0.02177    1.000
    N4341    N        0.71471    0.64202    0.10473    1.000
    N4342    N        0.71121    0.70496    0.06767    1.000
    Si4343   Si       0.73552    0.67967    0.09360    1.000
    Si4344   Si       0.72969    0.73555    0.04252    1.000
    N4345    N        0.74626    0.70988    0.01124    1.000
    N4346    N        0.70245    0.61319    0.19301    1.000
    Si4347   Si       0.74143    0.53806    0.13241    1.000
    N4348    N        0.72679    0.57898    0.13027    1.000
    N4349    N        0.70907    0.55051    0.22724    1.000
    Si4350   Si       0.70022    0.59242    0.23277    1.000
    Si4351   Si       0.74364    0.62787    0.20349    1.000
    N4352    N        0.73783    0.61017    0.24394    1.000
    N4353    N        0.74656    0.51285    0.17092    1.000
    Si4354   Si       0.74997    0.70332    0.21876    1.000
    N4355    N        0.74491    0.70377    0.12737    1.000
    Si4356   Si       0.73246    0.73875    0.14623    1.000
    N4357    N        0.74258    0.73513    0.18821    1.000
    N4358    N        0.72404    0.55515    0.29236    1.000
    Si4359   Si       0.70947    0.53389    0.36675    1.000
    Si4360   Si       0.73268    0.53049    0.25694    1.000
    N4361    N        0.74928    0.54944    0.36017    1.000
    Si4362   Si       0.73095    0.67252    0.28355    1.000
    N4363    N        0.72861    0.68676    0.32636    1.000
    Si4364   Si       0.72413    0.74336    0.27373    1.000
    N4365    N        0.72090    0.70478    0.25223    1.000
    N4366    N        0.69705    0.64892    0.29094    1.000
    N4367    N        0.74378    0.59713    0.48662    1.000
    N4368    N        0.72558    0.58258    0.41531    1.000
    Si4369   Si       0.73805    0.61134    0.44773    1.000
    Si4370   Si       0.70882    0.54703    0.43407    1.000
    N4371    N        0.74212    0.52403    0.44815    1.000
    Si4372   Si       0.69970    0.61817    0.40282    1.000
    Si4373   Si       0.74688    0.51061    0.48952    1.000
    Si4374   Si       0.73203    0.68826    0.36996    1.000
    N4375    N        0.73090    0.69232    0.47841    1.000
    N4376    N        0.70757    0.72333    0.37874    1.000
    N4377    N        0.70395    0.63612    0.44207    1.000
    N4378    N        0.74886    0.73360    0.42721    1.000
    N4379    N        0.70893    0.65070    0.37507    1.000
    Si4380   Si       0.71712    0.72661    0.45576    1.000
    Si4381   Si       0.73298    0.75556    0.39203    1.000
    Si4382   Si       0.70958    0.53789    0.60504    1.000
    N4383    N        0.70518    0.59044    0.54027    1.000
    Si4384   Si       0.73828    0.59479    0.56604    1.000
    N4385    N        0.74058    0.56697    0.59751    1.000
    N4386    N        0.72360    0.53146    0.51833    1.000
    Si4387   Si       0.71275    0.57073    0.50231    1.000
    N4388    N        0.73908    0.63423    0.58936    1.000
    N4389    N        0.73794    0.69765    0.56295    1.000
    Si4390   Si       0.70543    0.69452    0.59031    1.000
    N4391    N        0.71974    0.61852    0.66372    1.000
    Si4392   Si       0.72411    0.57374    0.66886    1.000
    N4393    N        0.71239    0.57312    0.71151    1.000
    N4394    N        0.70786    0.53880    0.65000    1.000
    Si4395   Si       0.72728    0.53904    0.73326    1.000
    N4396    N        0.74253    0.51098    0.70473    1.000
    N4397    N        0.72600    0.68489    0.69667    1.000
    Si4398   Si       0.73538    0.64415    0.63139    1.000
    N4399    N        0.72004    0.68355    0.62899    1.000
    Si4400   Si       0.72165    0.71021    0.66200    1.000
    Si4401   Si       0.72689    0.64201    0.70077    1.000
    N4402    N        0.73937    0.74025    0.73536    1.000
    Si4403   Si       0.73975    0.57437    0.79247    1.000
    N4404    N        0.71281    0.54795    0.81473    1.000
    N4405    N        0.71133    0.60308    0.77837    1.000
    N4406    N        0.69777    0.51683    0.75496    1.000
    N4407    N        0.74069    0.69628    0.79690    1.000
    N4408    N        0.71565    0.65059    0.83606    1.000
    Si4409   Si       0.73049    0.73320    0.77616    1.000
    Si4410   Si       0.69862    0.68995    0.81012    1.000
    Si4411   Si       0.74808    0.65622    0.86345    1.000
    N4412    N        0.72330    0.58228    0.87348    1.000
    N4413    N        0.73260    0.52177    0.98316    1.000
    Si4414   Si       0.73537    0.53474    0.94147    1.000
    Si4415   Si       0.73055    0.59959    0.91309    1.000
    N4416    N        0.73697    0.51238    0.90364    1.000
    N4417    N        0.69561    0.54978    0.93183    1.000
    N4418    N        0.73811    0.69352    0.88682    1.000
    N4419    N        0.69836    0.74416    0.89830    1.000
    Si4420   Si       0.72899    0.71133    0.97173    1.000
    Si4421   Si       0.74122    0.73633    0.90377    1.000
    N4422    N        0.72398    0.67313    0.95216    1.000
    N4423    N        0.73322    0.82866    0.02844    1.000
    N4424    N        0.73403    0.87137    0.08157    1.000
    N4425    N        0.70318    0.79464    0.08455    1.000
    Si4426   Si       0.74338    0.78619    0.09694    1.000
    N4427    N        0.71330    0.77055    0.01972    1.000
    Si4428   Si       0.74628    0.79495    0.00330    1.000
    Si4429   Si       0.69812    0.80623    0.04173    1.000
    Si4430   Si       0.71445    0.88201    0.11701    1.000
    N4431    N        0.72925    0.98456    0.01926    1.000
    Si4432   Si       0.74044    0.90596    0.05401    1.000
    N4433    N        0.70174    0.91940    0.03965    1.000
    N4434    N        0.69561    0.84932    0.14108    1.000
    Si4435   Si       0.72383    0.84103    0.17452    1.000
    N4436    N        0.70630    0.80595    0.19342    1.000
    N4437    N        0.72269    0.87585    0.20248    1.000
    Si4438   Si       0.71115    0.76277    0.20275    1.000
    N4439    N        0.72276    0.77235    0.24366    1.000
    Si4440   Si       0.69774    0.80814    0.23672    1.000
    N4441    N        0.72366    0.95033    0.19648    1.000
    N4442    N        0.69807    0.98203    0.13998    1.000
    Si4443   Si       0.73554    0.97758    0.16502    1.000
    N4444    N        0.74351    0.89948    0.14382    1.000
    Si4445   Si       0.74165    0.91221    0.18728    1.000
    N4446    N        0.72108    0.78833    0.34486    1.000
    N4447    N        0.70202    0.84395    0.26167    1.000
    N4448    N        0.74004    0.85272    0.36964    1.000
    N4449    N        0.70245    0.89439    0.30755    1.000
    Si4450   Si       0.72747    0.97070    0.29789    1.000
    N4451    N        0.71614    0.99300    0.26161    1.000
    N4452    N        0.74170    0.98790    0.33414    1.000
    Si4453   Si       0.74318    0.90763    0.31318    1.000
    N4454    N        0.74282    0.92039    0.35659    1.000
    Si4455   Si       0.73139    0.96363    0.37039    1.000
    Si4456   Si       0.71234    0.82041    0.37788    1.000
    N4457    N        0.73718    0.83009    0.46818    1.000
    N4458    N        0.72151    0.79361    0.41010    1.000
    Si4459   Si       0.71245    0.79959    0.45198    1.000
    Si4460   Si       0.72086    0.87039    0.46365    1.000
    N4461    N        0.70951    0.76381    0.47451    1.000
    N4462    N        0.70636    0.87362    0.42292    1.000
    N4463    N        0.75486    0.98677    0.40030    1.000
    N4464    N        0.73663    0.97408    0.47309    1.000
    N4465    N        0.71708    0.93608    0.41437    1.000
    Si4466   Si       0.74981    0.95786    0.43453    1.000
    Si4467   Si       0.72860    0.89796    0.39551    1.000
    N4468    N        0.75076    0.90273    0.47243    1.000
    N4469    N        0.72074    0.79410    0.60612    1.000
    N4470    N        0.71968    0.86163    0.55298    1.000
    N4471    N        0.71701    0.75891    0.54605    1.000
    N4472    N        0.74048    0.86648    0.61622    1.000
    Si4473   Si       0.75301    0.85553    0.57674    1.000
    N4474    N        0.73366    0.99584    0.60391    1.000
    N4475    N        0.71035    0.92980    0.52652    1.000
    Si4476   Si       0.70301    0.96502    0.60859    1.000
    N4477    N        0.72787    0.99968    0.53203    1.000
    Si4478   Si       0.74490    0.93819    0.49901    1.000
    N4479    N        0.72706    0.81949    0.66814    1.000
    Si4480   Si       0.70552    0.83368    0.70375    1.000
    Si4481   Si       0.71577    0.83131    0.62846    1.000
    N4482    N        0.71962    0.87517    0.70972    1.000
    N4483    N        0.71549    0.80795    0.73828    1.000
    Si4484   Si       0.74948    0.78132    0.74415    1.000
    N4485    N        0.75124    0.98720    0.66818    1.000
    Si4486   Si       0.69874    0.89682    0.74247    1.000
    N4487    N        0.69955    0.92628    0.63039    1.000
    Si4488   Si       0.73914    0.90812    0.62974    1.000
    Si4489   Si       0.70423    0.97010    0.73127    1.000
    N4490    N        0.74495    0.94967    0.73006    1.000
    Si4491   Si       0.72849    0.79911    0.81962    1.000
    N4492    N        0.71436    0.83706    0.80312    1.000
    N4493    N        0.74695    0.77286    0.78908    1.000
    Si4494   Si       0.72718    0.87878    0.81398    1.000
    N4495    N        0.69637    0.77966    0.83854    1.000
    N4496    N        0.70455    0.89990    0.84736    1.000
    N4497    N        0.72327    0.90124    0.77658    1.000
    N4498    N        0.71051    0.99737    0.76542    1.000
    N4499    N        0.70912    0.86627    0.95414    1.000
    N4500    N        0.71985    0.80881    0.90488    1.000
    Si4501   Si       0.71370    0.82300    0.94641    1.000
    N4502    N        0.75038    0.80920    0.96389    1.000
    Si4503   Si       0.72904    0.92977    0.87136    1.000
    Si4504   Si       0.70702    0.95139    0.92660    1.000
    N4505    N        0.70670    0.96516    0.88503    1.000
    Si4506   Si       0.70179    0.00516    0.87154    1.000
    N4507    N        0.73244    0.91815    0.91482    1.000
    Si4508   Si       0.74170    0.89359    0.95037    1.000
    N4509    N        0.73040    0.98127    0.95015    1.000
    Si4510   Si       0.75322    0.96733    0.98369    1.000
    N4511    N        0.77058    0.05156    0.02254    1.000
    N4512    N        0.79642    0.11516    0.01685    1.000
    Si4513   Si       0.80281    0.03907    0.05071    1.000
    N4514    N        0.80501    0.07187    0.08081    1.000
    Si4515   Si       0.75931    0.09281    0.02484    1.000
    Si4516   Si       0.77138    0.21135    0.05796    1.000
    N4517    N        0.77068    0.16700    0.05508    1.000
    Si4518   Si       0.80663    0.15345    0.03498    1.000
    N4519    N        0.76451    0.22572    0.01727    1.000
    N4520    N        0.80861    0.22199    0.07206    1.000
    Si4521   Si       0.79427    0.06120    0.12063    1.000
    Si4522   Si       0.78587    0.10476    0.18898    1.000
    N4523    N        0.80555    0.08927    0.15234    1.000
    N4524    N        0.81282    0.09884    0.22059    1.000
    Si4525   Si       0.78689    0.00821    0.21156    1.000
    N4526    N        0.80333    0.21714    0.18494    1.000
    Si4527   Si       0.81112    0.17503    0.18700    1.000
    N4528    N        0.75785    0.19848    0.23401    1.000
    N4529    N        0.77346    0.14901    0.18597    1.000
    Si4530   Si       0.77722    0.23370    0.21563    1.000
    N4531    N        0.78673    0.03567    0.31773    1.000
    Si4532   Si       0.80476    0.02201    0.28089    1.000
    Si4533   Si       0.80441    0.12330    0.31251    1.000
    N4534    N        0.77829    0.12662    0.27799    1.000
    N4535    N        0.77510    0.02690    0.24978    1.000
    N4536    N        0.80909    0.09507    0.34509    1.000
    Si4537   Si       0.81497    0.13048    0.25081    1.000
    Si4538   Si       0.76364    0.20405    0.27540    1.000
    N4539    N        0.77767    0.22360    0.34448    1.000
    N4540    N        0.79558    0.15592    0.34036    1.000
    N4541    N        0.80711    0.19784    0.28460    1.000
    Si4542   Si       0.80653    0.19403    0.32787    1.000
    N4543    N        0.75878    0.24722    0.28530    1.000
    Si4544   Si       0.80190    0.12758    0.37394    1.000
    Si4545   Si       0.76395    0.03000    0.39853    1.000
    Si4546   Si       0.77676    0.12097    0.44298    1.000
    Si4547   Si       0.79539    0.05085    0.46400    1.000
    N4548    N        0.80570    0.09369    0.46114    1.000
    N4549    N        0.80608    0.03710    0.38482    1.000
    N4550    N        0.76081    0.04670    0.43745    1.000
    N4551    N        0.76870    0.13282    0.40230    1.000
    N4552    N        0.78182    0.20114    0.41116    1.000
    Si4553   Si       0.79994    0.22804    0.38152    1.000
    N4554    N        0.78365    0.21567    0.48367    1.000
    Si4555   Si       0.80206    0.19877    0.44951    1.000
    N4556    N        0.79561    0.15504    0.46401    1.000
    Si4557   Si       0.78014    0.08748    0.58468    1.000
    Si4558   Si       0.80582    0.03513    0.53479    1.000
    N4559    N        0.80957    0.07532    0.55511    1.000
    N4560    N        0.78021    0.03166    0.49946    1.000
    N4561    N        0.80748    0.09135    0.61898    1.000
    Si4562   Si       0.80454    0.23370    0.55709    1.000
    N4563    N        0.78046    0.19736    0.54551    1.000
    N4564    N        0.80439    0.23170    0.60161    1.000
    Si4565   Si       0.78367    0.17576    0.50447    1.000
    Si4566   Si       0.76413    0.24928    0.50224    1.000
    Si4567   Si       0.79988    0.19510    0.62421    1.000
    Si4568   Si       0.80118    0.05581    0.71700    1.000
    N4569    N        0.76559    0.02979    0.72733    1.000
    N4570    N        0.79495    0.09420    0.69615    1.000
    N4571    N        0.79846    0.03774    0.67326    1.000
    Si4572   Si       0.76500    0.12649    0.70381    1.000
    Si4573   Si       0.75576    0.02629    0.68582    1.000
    Si4574   Si       0.81231    0.07843    0.65934    1.000
    Si4575   Si       0.80670    0.19360    0.69307    1.000
    N4576    N        0.76064    0.18528    0.64148    1.000
    N4577    N        0.79284    0.15697    0.71745    1.000
    N4578    N        0.77473    0.22289    0.69484    1.000
    N4579    N        0.78123    0.05538    0.83952    1.000
    Si4580   Si       0.80013    0.08915    0.86110    1.000
    N4581    N        0.76623    0.11860    0.86291    1.000
    N4582    N        0.80269    0.07321    0.75979    1.000
    Si4583   Si       0.76579    0.09185    0.77209    1.000
    Si4584   Si       0.80502    0.02562    0.81768    1.000
    N4585    N        0.78060    0.12290    0.79714    1.000
    N4586    N        0.79364    0.23908    0.83073    1.000
    Si4587   Si       0.79214    0.19974    0.81817    1.000
    N4588    N        0.80353    0.19956    0.77743    1.000
    Si4589   Si       0.80924    0.25254    0.87014    1.000
    N4590    N        0.78855    0.12324    0.94795    1.000
    Si4591   Si       0.78926    0.04032    0.98298    1.000
    Si4592   Si       0.77686    0.08616    0.92861    1.000
    N4593    N        0.76112    0.04963    0.95034    1.000
    N4594    N        0.80971    0.07618    0.90147    1.000
    Si4595   Si       0.77831    0.16225    0.93224    1.000
    N4596    N        0.80630    0.16989    0.90248    1.000
    Si4597   Si       0.75901    0.23710    0.93883    1.000
    N4598    N        0.78797    0.24386    0.90862    1.000
    N4599    N        0.78017    0.20007    0.95490    1.000
    Si4600   Si       0.79790    0.21628    0.99214    1.000
    N4601    N        0.78884    0.30835    0.07188    1.000
    Si4602   Si       0.80808    0.29306    0.10655    1.000
    N4603    N        0.79796    0.42923    0.04646    1.000
    Si4604   Si       0.79675    0.39396    0.07104    1.000
    Si4605   Si       0.78196    0.50171    0.08507    1.000
    N4606    N        0.81017    0.38876    0.11397    1.000
    N4607    N        0.75688    0.46712    0.09037    1.000
    Si4608   Si       0.75380    0.50073    0.01453    1.000
    Si4609   Si       0.75432    0.44115    0.05661    1.000
    N4610    N        0.80027    0.26244    0.23835    1.000
    N4611    N        0.81305    0.32430    0.13527    1.000
    N4612    N        0.77665    0.37546    0.17827    1.000
    Si4613   Si       0.78915    0.36126    0.14010    1.000
    N4614    N        0.79216    0.26055    0.13077    1.000
    Si4615   Si       0.81011    0.38382    0.20456    1.000
    N4616    N        0.80232    0.47190    0.19603    1.000
    N4617    N        0.78921    0.40900    0.23634    1.000
    Si4618   Si       0.78096    0.44973    0.22740    1.000
    N4619    N        0.77801    0.35434    0.28853    1.000
    N4620    N        0.79114    0.34746    0.35773    1.000
    Si4621   Si       0.78023    0.28202    0.27154    1.000
    Si4622   Si       0.80455    0.33820    0.31778    1.000
    N4623    N        0.80959    0.29811    0.30026    1.000
    Si4624   Si       0.79896    0.38955    0.27406    1.000
    N4625    N        0.78889    0.47192    0.26372    1.000
    Si4626   Si       0.78251    0.47467    0.30631    1.000
    N4627    N        0.79502    0.41330    0.30936    1.000
    N4628    N        0.77184    0.37289    0.42069    1.000
    Si4629   Si       0.76925    0.33656    0.39285    1.000
    N4630    N        0.77652    0.30695    0.42501    1.000
    Si4631   Si       0.78857    0.46053    0.45952    1.000
    Si4632   Si       0.77823    0.40996    0.39578    1.000
    N4633    N        0.76676    0.43821    0.42643    1.000
    N4634    N        0.81169    0.49174    0.43780    1.000
    Si4635   Si       0.79522    0.30837    0.54762    1.000
    N4636    N        0.78902    0.26702    0.53195    1.000
    N4637    N        0.76807    0.37928    0.60365    1.000
    N4638    N        0.75416    0.32459    0.56094    1.000
    N4639    N        0.78704    0.48764    0.54761    1.000
    N4640    N        0.77919    0.44874    0.60732    1.000
    N4641    N        0.76790    0.42240    0.54226    1.000
    Si4642   Si       0.76991    0.49190    0.58874    1.000
    Si4643   Si       0.80167    0.44661    0.53435    1.000
    N4644    N        0.76870    0.29207    0.69759    1.000
    Si4645   Si       0.77315    0.33366    0.70280    1.000
    N4646    N        0.79583    0.35048    0.66862    1.000
    Si4647   Si       0.76704    0.28088    0.65482    1.000
    N4648    N        0.79929    0.33301    0.73874    1.000
    N4649    N        0.81054    0.28553    0.64749    1.000
    Si4650   Si       0.76211    0.25685    0.72032    1.000
    Si4651   Si       0.79105    0.38312    0.64103    1.000
    Si4652   Si       0.77027    0.45010    0.65199    1.000
    N4653    N        0.79192    0.47469    0.74361    1.000
    N4654    N        0.76211    0.41044    0.66264    1.000
    N4655    N        0.79541    0.48051    0.67150    1.000
    Si4656   Si       0.78441    0.49825    0.70874    1.000
    N4657    N        0.77046    0.29780    0.80950    1.000
    Si4658   Si       0.79437    0.32050    0.84069    1.000
    Si4659   Si       0.79844    0.35920    0.77253    1.000
    N4660    N        0.75683    0.33366    0.86443    1.000
    Si4661   Si       0.77375    0.25838    0.79558    1.000
    N4662    N        0.75668    0.36372    0.78548    1.000
    N4663    N        0.78877    0.25760    0.75548    1.000
    N4664    N        0.77340    0.43093    0.80266    1.000
    Si4665   Si       0.78799    0.43241    0.84465    1.000
    N4666    N        0.77933    0.47323    0.85463    1.000
    Si4667   Si       0.76262    0.45850    0.76908    1.000
    N4668    N        0.76588    0.39889    0.85836    1.000
    Si4669   Si       0.78045    0.50277    0.81999    1.000
    N4670    N        0.81076    0.39570    0.75387    1.000
    Si4671   Si       0.77601    0.36658    0.88583    1.000
    Si4672   Si       0.79312    0.28673    0.96870    1.000
    N4673    N        0.80927    0.31418    0.93526    1.000
    N4674    N        0.80347    0.31975    0.99743    1.000
    N4675    N        0.80552    0.42753    0.97696    1.000
    Si4676   Si       0.77411    0.49275    0.89249    1.000
    Si4677   Si       0.79893    0.46755    0.95837    1.000
    N4678    N        0.77347    0.46283    0.92310    1.000
    N4679    N        0.77342    0.39017    0.92376    1.000
    N4680    N        0.78905    0.48264    0.99726    1.000
    N4681    N        0.76654    0.59596    0.07870    1.000
    Si4682   Si       0.77648    0.56620    0.04795    1.000
    N4683    N        0.76649    0.52267    0.04963    1.000
    N4684    N        0.77785    0.57140    0.00619    1.000
    Si4685   Si       0.80776    0.59623    0.09086    1.000
    N4686    N        0.78381    0.53061    0.11771    1.000
    N4687    N        0.76944    0.67069    0.06846    1.000
    Si4688   Si       0.80515    0.66746    0.09386    1.000
    N4689    N        0.78506    0.64542    0.00668    1.000
    Si4690   Si       0.75415    0.66835    0.02764    1.000
    N4691    N        0.75510    0.75413    0.07086    1.000
    Si4692   Si       0.78355    0.50975    0.19478    1.000
    Si4693   Si       0.78929    0.56828    0.21209    1.000
    Si4694   Si       0.80471    0.61919    0.15987    1.000
    N4695    N        0.77392    0.60093    0.18453    1.000
    N4696    N        0.77238    0.53246    0.23406    1.000
    N4697    N        0.81046    0.54185    0.18287    1.000
    N4698    N        0.80401    0.59812    0.24298    1.000
    Si4699   Si       0.80941    0.74067    0.19823    1.000
    N4700    N        0.80420    0.71452    0.16345    1.000
    Si4701   Si       0.77247    0.68520    0.15668    1.000
    N4702    N        0.78805    0.72272    0.23381    1.000
    N4703    N        0.79303    0.65150    0.13331    1.000
    N4704    N        0.75663    0.66726    0.19364    1.000
    N4705    N        0.78010    0.59057    0.31078    1.000
    Si4706   Si       0.76986    0.61068    0.27242    1.000
    N4707    N        0.77977    0.52000    0.30182    1.000
    Si4708   Si       0.80314    0.60770    0.34290    1.000
    Si4709   Si       0.79946    0.51475    0.26334    1.000
    Si4710   Si       0.75871    0.55441    0.31819    1.000
    N4711    N        0.77242    0.65436    0.28117    1.000
    Si4712   Si       0.79647    0.73613    0.27462    1.000
    N4713    N        0.76063    0.74601    0.29840    1.000
    N4714    N        0.77298    0.75488    0.37222    1.000
    N4715    N        0.77311    0.61175    0.37407    1.000
    Si4716   Si       0.76206    0.57409    0.39264    1.000
    Si4717   Si       0.78742    0.52757    0.44618    1.000
    N4718    N        0.79492    0.55567    0.41384    1.000
    N4719    N        0.78833    0.52434    0.48839    1.000
    N4720    N        0.77429    0.63120    0.43806    1.000
    Si4721   Si       0.77114    0.68917    0.49172    1.000
    Si4722   Si       0.78442    0.72439    0.40426    1.000
    N4723    N        0.80687    0.68365    0.46468    1.000
    N4724    N        0.77129    0.68639    0.38880    1.000
    Si4725   Si       0.78410    0.64635    0.39892    1.000
    N4726    N        0.77650    0.59576    0.54637    1.000
    Si4727   Si       0.77718    0.61518    0.50893    1.000
    N4728    N        0.80819    0.59390    0.60414    1.000
    N4729    N        0.78982    0.52151    0.61469    1.000
    Si4730   Si       0.77810    0.56302    0.61876    1.000
    Si4731   Si       0.80964    0.51528    0.52565    1.000
    Si4732   Si       0.76078    0.66204    0.56393    1.000
    N4733    N        0.77750    0.74579    0.58626    1.000
    N4734    N        0.77094    0.65646    0.52041    1.000
    N4735    N        0.77619    0.72831    0.51439    1.000
    N4736    N        0.79762    0.66895    0.58478    1.000
    Si4737   Si       0.80590    0.71131    0.59303    1.000
    Si4738   Si       0.80820    0.63743    0.61191    1.000
    Si4739   Si       0.75263    0.73677    0.55027    1.000
    Si4740   Si       0.78432    0.60913    0.67587    1.000
    N4741    N        0.76643    0.57132    0.65968    1.000
    N4742    N        0.80323    0.53485    0.71755    1.000
    N4743    N        0.76739    0.62944    0.70993    1.000
    Si4744   Si       0.79965    0.74327    0.65785    1.000
    N4745    N        0.77834    0.63922    0.64427    1.000
    N4746    N        0.79300    0.69475    0.72735    1.000
    Si4747   Si       0.79694    0.65032    0.73291    1.000
    N4748    N        0.76236    0.72638    0.66781    1.000
    Si4749   Si       0.75733    0.71124    0.70937    1.000
    N4750    N        0.78221    0.53665    0.84719    1.000
    N4751    N        0.76673    0.59576    0.81790    1.000
    Si4752   Si       0.80133    0.54659    0.75987    1.000
    Si4753   Si       0.80153    0.61278    0.80112    1.000
    Si4754   Si       0.76323    0.57492    0.85582    1.000
    N4755    N        0.75876    0.55241    0.76281    1.000
    N4756    N        0.78445    0.66415    0.84250    1.000
    N4757    N        0.78579    0.64326    0.77546    1.000
    Si4758   Si       0.77893    0.67694    0.80176    1.000
    N4759    N        0.81194    0.75430    0.83670    1.000
    N4760    N        0.79425    0.58720    0.88195    1.000
    Si4761   Si       0.79794    0.61910    0.91093    1.000
    Si4762   Si       0.79278    0.57367    0.96566    1.000
    N4763    N        0.81028    0.51896    0.90080    1.000
    N4764    N        0.75687    0.57225    0.93898    1.000
    Si4765   Si       0.80246    0.71820    0.94256    1.000
    Si4766   Si       0.75519    0.67560    0.92458    1.000
    N4767    N        0.79328    0.67563    0.94579    1.000
    N4768    N        0.75856    0.72715    0.94297    1.000
    N4769    N        0.75441    0.63502    0.90412    1.000
    N4770    N        0.78477    0.77723    0.01497    1.000
    N4771    N        0.77330    0.81356    0.07744    1.000
    Si4772   Si       0.78869    0.77717    0.05684    1.000
    Si4773   Si       0.75912    0.84811    0.05785    1.000
    N4774    N        0.77810    0.88307    0.03805    1.000
    Si4775   Si       0.78845    0.96659    0.06492    1.000
    N4776    N        0.76099    0.93487    0.07852    1.000
    Si4777   Si       0.77002    0.92516    0.11985    1.000
    N4778    N        0.77636    0.00622    0.06447    1.000
    Si4779   Si       0.78385    0.89614    0.99437    1.000
    N4780    N        0.76800    0.83968    0.16458    1.000
    Si4781   Si       0.78339    0.80084    0.15970    1.000
    N4782    N        0.80118    0.78485    0.19840    1.000
    Si4783   Si       0.78299    0.87951    0.15919    1.000
    N4784    N        0.75502    0.77666    0.13675    1.000
    Si4785   Si       0.80981    0.97947    0.13236    1.000
    N4786    N        0.76939    0.96331    0.14058    1.000
    N4787    N        0.79588    0.96692    0.22677    1.000
    N4788    N        0.80444    0.89941    0.12794    1.000
    N4789    N        0.78449    0.91164    0.18768    1.000
    N4790    N        0.79231    0.80360    0.33313    1.000
    Si4791   Si       0.77642    0.84421    0.34550    1.000
    Si4792   Si       0.75910    0.77378    0.33270    1.000
    N4793    N        0.77607    0.87682    0.31508    1.000
    Si4794   Si       0.80866    0.78147    0.36780    1.000
    N4795    N        0.80682    0.86334    0.37263    1.000
    Si4796   Si       0.81187    0.87593    0.28918    1.000
    N4797    N        0.81098    0.83651    0.26784    1.000
    Si4798   Si       0.79462    0.95128    0.26858    1.000
    N4799    N        0.75746    0.94081    0.28875    1.000
    Si4800   Si       0.78157    0.90046    0.36679    1.000
    Si4801   Si       0.78023    0.83216    0.47391    1.000
    N4802    N        0.79409    0.78889    0.46903    1.000
    N4803    N        0.79993    0.85847    0.44658    1.000
    Si4804   Si       0.79179    0.90292    0.44800    1.000
    N4805    N        0.78922    0.94899    0.44894    1.000
    N4806    N        0.77211    0.90342    0.40865    1.000
    N4807    N        0.77209    0.81536    0.57543    1.000
    N4808    N        0.79333    0.84516    0.51318    1.000
    Si4809   Si       0.76277    0.78306    0.60382    1.000
    Si4810   Si       0.80321    0.81597    0.54515    1.000
    Si4811   Si       0.80302    0.75819    0.49874    1.000
    N4812    N        0.78154    0.88544    0.56589    1.000
    N4813    N        0.77692    0.94326    0.52772    1.000
    Si4814   Si       0.78149    0.92897    0.56798    1.000
    N4815    N        0.75840    0.93866    0.60422    1.000
    N4816    N        0.78862    0.01063    0.56481    1.000
    N4817    N        0.78439    0.85106    0.67694    1.000
    N4818    N        0.78487    0.78389    0.64263    1.000
    Si4819   Si       0.76930    0.81069    0.67498    1.000
    N4820    N        0.77736    0.79492    0.71433    1.000
    Si4821   Si       0.75999    0.88162    0.69574    1.000
    Si4822   Si       0.76599    0.95245    0.69220    1.000
    N4823    N        0.75767    0.91595    0.67027    1.000
    N4824    N        0.80539    0.98736    0.62721    1.000
    Si4825   Si       0.76384    0.97613    0.62726    1.000
    N4826    N        0.77964    0.89038    0.73458    1.000
    N4827    N        0.80752    0.96486    0.69226    1.000
    Si4828   Si       0.78810    0.83953    0.82781    1.000
    Si4829   Si       0.79100    0.77300    0.80030    1.000
    N4830    N        0.80127    0.81374    0.79741    1.000
    N4831    N        0.76912    0.87831    0.82415    1.000
    N4832    N        0.75864    0.81323    0.84671    1.000
    N4833    N        0.80214    0.75896    0.76011    1.000
    Si4834   Si       0.75990    0.92202    0.76099    1.000
    N4835    N        0.78693    0.93593    0.79130    1.000
    Si4836   Si       0.79025    0.91551    0.82910    1.000
    N4837    N        0.76907    0.93770    0.85933    1.000
    Si4838   Si       0.81171    0.97058    0.79390    1.000
    N4839    N        0.81181    0.98520    0.83680    1.000
    N4840    N        0.78489    0.00564    0.78621    1.000
    N4841    N        0.78915    0.82633    0.90749    1.000
    N4842    N        0.77744    0.87085    0.96142    1.000
    Si4843   Si       0.78638    0.82964    0.95038    1.000
    Si4844   Si       0.75820    0.80374    0.88799    1.000
    N4845    N        0.77031    0.76307    0.88815    1.000
    N4846    N        0.75357    0.92486    0.98339    1.000
    N4847    N        0.78710    0.99605    0.98588    1.000
    Si4848   Si       0.79539    0.96904    0.87551    1.000
    N4849    N        0.78813    0.99557    0.91054    1.000
    Si4850   Si       0.83794    0.10115    0.07363    1.000
    N4851    N        0.83596    0.02065    0.02637    1.000
    N4852    N        0.86072    0.09852    0.11253    1.000
    N4853    N        0.85639    0.07978    0.04311    1.000
    N4854    N        0.83627    0.14532    0.06588    1.000
    Si4855   Si       0.84520    0.23032    0.09054    1.000
    N4856    N        0.82094    0.18231    0.00497    1.000
    Si4857   Si       0.84380    0.11272    0.14961    1.000
    Si4858   Si       0.83664    0.06233    0.22957    1.000
    Si4859   Si       0.84459    0.02089    0.16719    1.000
    N4860    N        0.82379    0.03099    0.20305    1.000
    N4861    N        0.81434    0.02415    0.13177    1.000
    Si4862   Si       0.82277    0.24347    0.15709    1.000
    N4863    N        0.83281    0.15473    0.15609    1.000
    N4864    N        0.82932    0.16633    0.22654    1.000
    N4865    N        0.84768    0.21738    0.13219    1.000
    N4866    N        0.86295    0.23162    0.23232    1.000
    Si4867   Si       0.86520    0.18126    0.14509    1.000
    N4868    N        0.83207    0.05400    0.27241    1.000
    N4869    N        0.85874    0.04589    0.33587    1.000
    Si4870   Si       0.86771    0.04980    0.29316    1.000
    N4871    N        0.83931    0.13013    0.28743    1.000
    Si4872   Si       0.81657    0.05365    0.34553    1.000
    N4873    N        0.85890    0.24845    0.31350    1.000
    N4874    N        0.83455    0.20656    0.35982    1.000
    Si4875   Si       0.84113    0.19862    0.25353    1.000
    Si4876   Si       0.87029    0.22978    0.35216    1.000
    Si4877   Si       0.82471    0.12610    0.48522    1.000
    N4878    N        0.82621    0.02362    0.44844    1.000
    Si4879   Si       0.83752    0.01741    0.40700    1.000
    Si4880   Si       0.85665    0.01265    0.47603    1.000
    N4881    N        0.83660    0.12673    0.39817    1.000
    Si4882   Si       0.86989    0.13212    0.42433    1.000
    N4883    N        0.86209    0.14561    0.46810    1.000
    N4884    N        0.84253    0.20779    0.44207    1.000
    Si4885   Si       0.85297    0.24453    0.42201    1.000
    Si4886   Si       0.84950    0.08769    0.54629    1.000
    N4887    N        0.85319    0.09562    0.50555    1.000
    N4888    N        0.84322    0.01892    0.51817    1.000
    N4889    N        0.86149    0.11554    0.57841    1.000
    Si4890   Si       0.83275    0.12703    0.60900    1.000
    N4891    N        0.84105    0.20821    0.54531    1.000
    Si4892   Si       0.81681    0.17365    0.55653    1.000
    N4893    N        0.81203    0.14613    0.52199    1.000
    N4894    N        0.81319    0.16249    0.59657    1.000
    N4895    N        0.85476    0.07475    0.66891    1.000
    N4896    N        0.84225    0.03888    0.72962    1.000
    Si4897   Si       0.86934    0.04341    0.69553    1.000
    N4898    N        0.86103    0.00836    0.66849    1.000
    Si4899   Si       0.86914    0.17868    0.64978    1.000
    N4900    N        0.83631    0.20264    0.72506    1.000
    N4901    N        0.82862    0.19462    0.65721    1.000
    N4902    N        0.85827    0.13904    0.64170    1.000
    N4903    N        0.83491    0.10523    0.83808    1.000
    N4904    N        0.84393    0.03525    0.80184    1.000
    Si4905   Si       0.84408    0.06220    0.76579    1.000
    Si4906   Si       0.82044    0.13320    0.80889    1.000
    N4907    N        0.84217    0.14140    0.77264    1.000
    N4908    N        0.85614    0.24576    0.78838    1.000
    Si4909   Si       0.82744    0.23608    0.75604    1.000
    N4910    N        0.81865    0.16997    0.83296    1.000
    Si4911   Si       0.81824    0.16998    0.75067    1.000
    N4912    N        0.82069    0.06676    0.96468    1.000
    Si4913   Si       0.84267    0.05860    0.92736    1.000
    N4914    N        0.85364    0.01768    0.91980    1.000
    Si4915   Si       0.81784    0.11043    0.97900    1.000
    N4916    N        0.85258    0.13223    0.96788    1.000
    N4917    N        0.83925    0.21928    0.88284    1.000
    Si4918   Si       0.85861    0.24528    0.96279    1.000
    N4919    N        0.86942    0.15023    0.87819    1.000
    Si4920   Si       0.83583    0.17623    0.87179    1.000
    Si4921   Si       0.85555    0.17388    0.97979    1.000
    N4922    N        0.84988    0.20416    0.94904    1.000
    N4923    N        0.81746    0.25238    0.97552    1.000
    Si4924   Si       0.81562    0.21102    0.92168    1.000
    N4925    N        0.85312    0.30409    0.03834    1.000
    N4926    N        0.84884    0.27609    0.09800    1.000
    N4927    N        0.82091    0.36345    0.05160    1.000
    Si4928   Si       0.86342    0.37205    0.05514    1.000
    Si4929   Si       0.81398    0.32376    0.03824    1.000
    N4930    N        0.85401    0.46297    0.01839    1.000
    Si4931   Si       0.85712    0.49309    0.04932    1.000
    Si4932   Si       0.85173    0.48295    0.11180    1.000
    N4933    N        0.82381    0.49272    0.07834    1.000
    N4934    N        0.86684    0.40870    0.07823    1.000
    Si4935   Si       0.84828    0.40966    0.11882    1.000
    Si4936   Si       0.81296    0.45010    0.01434    1.000
    N4937    N        0.82743    0.34344    0.20167    1.000
    N4938    N        0.83704    0.27673    0.18386    1.000
    Si4939   Si       0.85238    0.34158    0.23713    1.000
    Si4940   Si       0.84026    0.31716    0.16972    1.000
    Si4941   Si       0.84083    0.26804    0.22565    1.000
    N4942    N        0.84215    0.41099    0.19190    1.000
    N4943    N        0.84103    0.44925    0.13674    1.000
    Si4944   Si       0.83922    0.45427    0.17939    1.000
    N4945    N        0.83864    0.37327    0.26387    1.000
    Si4946   Si       0.85202    0.28762    0.29525    1.000
    N4947    N        0.84688    0.34790    0.33254    1.000
    N4948    N        0.85374    0.29915    0.25240    1.000
    Si4949   Si       0.83186    0.36383    0.37139    1.000
    Si4950   Si       0.82654    0.42805    0.33539    1.000
    N4951    N        0.86251    0.41897    0.31000    1.000
    Si4952   Si       0.84969    0.49937    0.34750    1.000
    N4953    N        0.81874    0.47176    0.33183    1.000
    N4954    N        0.82868    0.33875    0.40931    1.000
    N4955    N        0.85007    0.27803    0.45038    1.000
    Si4956   Si       0.81960    0.29838    0.42420    1.000
    N4957    N        0.82067    0.26100    0.40032    1.000
    Si4958   Si       0.81107    0.36538    0.43997    1.000
    N4959    N        0.81593    0.34175    0.47557    1.000
    Si4960   Si       0.85272    0.49039    0.41965    1.000
    Si4961   Si       0.84950    0.41578    0.40351    1.000
    N4962    N        0.83300    0.40483    0.44241    1.000
    N4963    N        0.81709    0.40830    0.37507    1.000
    Si4964   Si       0.84634    0.42078    0.48019    1.000
    N4965    N        0.87021    0.45354    0.40203    1.000
    N4966    N        0.81133    0.44395    0.49221    1.000
    Si4967   Si       0.84941    0.33161    0.57742    1.000
    N4968    N        0.82421    0.34016    0.54135    1.000
    Si4969   Si       0.84558    0.34987    0.50532    1.000
    Si4970   Si       0.82798    0.26642    0.61208    1.000
    N4971    N        0.82097    0.29469    0.58043    1.000
    N4972    N        0.86944    0.25910    0.60784    1.000
    N4973    N        0.85335    0.39192    0.51224    1.000
    N4974    N        0.83256    0.43451    0.56225    1.000
    Si4975   Si       0.82214    0.43673    0.60346    1.000
    Si4976   Si       0.86525    0.40829    0.54929    1.000
    N4977    N        0.85207    0.50589    0.51515    1.000
    N4978    N        0.84875    0.33910    0.62217    1.000
    Si4979   Si       0.83584    0.30987    0.73295    1.000
    N4980    N        0.85041    0.26752    0.72932    1.000
    N4981    N        0.85382    0.31867    0.69146    1.000
    Si4982   Si       0.82723    0.32385    0.65713    1.000
    Si4983   Si       0.86211    0.37944    0.62495    1.000
    N4984    N        0.86156    0.49063    0.73376    1.000
    N4985    N        0.83977    0.47040    0.62571    1.000
    N4986    N        0.82685    0.40225    0.62853    1.000
    Si4987   Si       0.82022    0.50374    0.64220    1.000
    Si4988   Si       0.86051    0.34071    0.80302    1.000
    N4989    N        0.86169    0.31357    0.77043    1.000
    N4990    N        0.81841    0.34552    0.81166    1.000
    N4991    N        0.81795    0.29382    0.86664    1.000
    N4992    N        0.86899    0.37952    0.78497    1.000
    Si4993   Si       0.85947    0.45247    0.82693    1.000
    Si4994   Si       0.82991    0.48238    0.76359    1.000
    N4995    N        0.84540    0.45001    0.78627    1.000
    N4996    N        0.83142    0.42529    0.84644    1.000
    Si4997   Si       0.84700    0.41213    0.76856    1.000
    N4998    N        0.86841    0.49477    0.83996    1.000
    Si4999   Si       0.83230    0.32106    0.89802    1.000
    N5000    N        0.84209    0.37521    0.96187    1.000
    Si5001   Si       0.83157    0.33459    0.96684    1.000
    N5002    N        0.81876    0.35911    0.88022    1.000
    N5003    N        0.86656    0.31058    0.96751    1.000
    Si5004   Si       0.81278    0.39953    0.94348    1.000
    N5005    N        0.83940    0.47953    0.94699    1.000
    Si5006   Si       0.86522    0.44873    0.92996    1.000
    N5007    N        0.83732    0.42034    0.91475    1.000
    Si5008   Si       0.84237    0.39626    0.87764    1.000
    Si5009   Si       0.85589    0.57190    0.03909    1.000
    N5010    N        0.86414    0.59799    0.00506    1.000
    N5011    N        0.81866    0.56725    0.06008    1.000
    N5012    N        0.87084    0.53118    0.03205    1.000
    N5013    N        0.82989    0.63375    0.08231    1.000
    Si5014   Si       0.84688    0.73188    0.07613    1.000
    N5015    N        0.82396    0.70448    0.09976    1.000
    N5016    N        0.86464    0.71396    0.04018    1.000
    N5017    N        0.86470    0.74987    0.11538    1.000
    Si5018   Si       0.85398    0.70664    0.99783    1.000
    N5019    N        0.85472    0.51936    0.13338    1.000
    Si5020   Si       0.83927    0.62069    0.22979    1.000
    Si5021   Si       0.82027    0.54557    0.14099    1.000
    N5022    N        0.81900    0.58873    0.13236    1.000
    N5023    N        0.87089    0.59062    0.23189    1.000
    N5024    N        0.86880    0.69069    0.16044    1.000
    N5025    N        0.83763    0.63229    0.18712    1.000
    Si5026   Si       0.84029    0.71802    0.13931    1.000
    N5027    N        0.85413    0.74916    0.19207    1.000
    Si5028   Si       0.87380    0.64724    0.16232    1.000
    N5029    N        0.83363    0.58134    0.36044    1.000
    Si5030   Si       0.86420    0.56538    0.26620    1.000
    N5031    N        0.83501    0.53487    0.25699    1.000
    N5032    N        0.86585    0.53179    0.32385    1.000
    N5033    N        0.86281    0.59268    0.29882    1.000
    N5034    N        0.82370    0.64223    0.32975    1.000
    Si5035   Si       0.84707    0.72230    0.32659    1.000
    Si5036   Si       0.85826    0.65599    0.35343    1.000
    N5037    N        0.84582    0.64782    0.26385    1.000
    N5038    N        0.84893    0.69741    0.36138    1.000
    Si5039   Si       0.81456    0.66480    0.29108    1.000
    N5040    N        0.81915    0.70806    0.29731    1.000
    N5041    N        0.84630    0.51635    0.38586    1.000
    Si5042   Si       0.86463    0.62083    0.41541    1.000
    Si5043   Si       0.83314    0.55551    0.39572    1.000
    N5044    N        0.85993    0.57819    0.42224    1.000
    N5045    N        0.81447    0.61432    0.48740    1.000
    N5046    N        0.86811    0.56872    0.49117    1.000
    Si5047   Si       0.84422    0.70219    0.46406    1.000
    N5048    N        0.82612    0.64164    0.40853    1.000
    Si5049   Si       0.81583    0.64215    0.45291    1.000
    N5050    N        0.83718    0.74400    0.47362    1.000
    Si5051   Si       0.86046    0.72492    0.39511    1.000
    N5052    N        0.82284    0.74308    0.40976    1.000
    N5053    N        0.86586    0.63419    0.45780    1.000
    N5054    N        0.84948    0.61136    0.54542    1.000
    N5055    N        0.82243    0.55074    0.54807    1.000
    Si5056   Si       0.86064    0.54738    0.52758    1.000
    Si5057   Si       0.81620    0.59020    0.56204    1.000
    Si5058   Si       0.85809    0.61149    0.49996    1.000
    N5059    N        0.83855    0.71987    0.56524    1.000
    Si5060   Si       0.87062    0.70745    0.53702    1.000
    N5061    N        0.87028    0.68811    0.49775    1.000
    N5062    N        0.86125    0.56554    0.71986    1.000
    Si5063   Si       0.86036    0.61040    0.64945    1.000
    N5064    N        0.82549    0.59656    0.67282    1.000
    Si5065   Si       0.83030    0.55662    0.69158    1.000
    N5066    N        0.84766    0.53168    0.66130    1.000
    Si5067   Si       0.85454    0.60002    0.74591    1.000
    N5068    N        0.82063    0.71244    0.63369    1.000
    N5069    N        0.84650    0.64641    0.63022    1.000
    Si5070   Si       0.85330    0.68692    0.64429    1.000
    N5071    N        0.83997    0.63813    0.72830    1.000
    N5072    N        0.82584    0.75185    0.69140    1.000
    Si5073   Si       0.86533    0.73205    0.70134    1.000
    N5074    N        0.86281    0.68953    0.68744    1.000
    N5075    N        0.85951    0.72980    0.74329    1.000
    N5076    N        0.84664    0.55971    0.84387    1.000
    N5077    N        0.83545    0.62330    0.82527    1.000
    Si5078   Si       0.84997    0.52737    0.81595    1.000
    N5079    N        0.81850    0.58571    0.76929    1.000
    N5080    N        0.81469    0.51389    0.79147    1.000
    Si5081   Si       0.86906    0.59855    0.84179    1.000
    Si5082   Si       0.83696    0.72127    0.82292    1.000
    N5083    N        0.84879    0.69358    0.85402    1.000
    Si5084   Si       0.82837    0.65665    0.85317    1.000
    Si5085   Si       0.81929    0.71821    0.75399    1.000
    N5086    N        0.81259    0.70240    0.79309    1.000
    Si5087   Si       0.81623    0.55076    0.87273    1.000
    N5088    N        0.83163    0.55053    0.95966    1.000
    Si5089   Si       0.86248    0.58052    0.96377    1.000
    Si5090   Si       0.84178    0.51955    0.93097    1.000
    N5091    N        0.81101    0.61059    0.95129    1.000
    Si5092   Si       0.81278    0.64948    0.97439    1.000
    N5093    N        0.85050    0.66543    0.98740    1.000
    N5094    N        0.82760    0.64531    0.89455    1.000
    Si5095   Si       0.86434    0.70744    0.89358    1.000
    N5096    N        0.82620    0.72752    0.90723    1.000
    N5097    N        0.82270    0.73261    0.97867    1.000
    N5098    N        0.84007    0.84155    0.04787    1.000
    N5099    N        0.82953    0.76994    0.06550    1.000
    Si5100   Si       0.85494    0.79965    0.04546    1.000
    N5101    N        0.86015    0.78285    0.00636    1.000
    Si5102   Si       0.85859    0.79355    0.11536    1.000
    N5103    N        0.86172    0.85760    0.11572    1.000
    Si5104   Si       0.82355    0.88150    0.04040    1.000
    Si5105   Si       0.84754    0.94490    0.06164    1.000
    N5106    N        0.84802    0.90229    0.06844    1.000
    Si5107   Si       0.82423    0.98548    0.00269    1.000
    N5108    N        0.82317    0.96325    0.09530    1.000
    Si5109   Si       0.84427    0.89858    0.11423    1.000
    N5110    N        0.82707    0.89766    0.99926    1.000
    N5111    N        0.81669    0.95633    0.03215    1.000
    Si5112   Si       0.84613    0.78953    0.17737    1.000
    N5113    N        0.85122    0.81789    0.21298    1.000
    N5114    N        0.82346    0.79757    0.14028    1.000
    Si5115   Si       0.81754    0.80601    0.23508    1.000
    Si5116   Si       0.81405    0.94350    0.19478    1.000
    N5117    N        0.83145    0.97645    0.16942    1.000
    N5118    N        0.84941    0.92354    0.20806    1.000
    N5119    N        0.84657    0.86893    0.31688    1.000
    Si5120   Si       0.82325    0.80149    0.29798    1.000
    N5121    N        0.84078    0.76202    0.34474    1.000
    N5122    N        0.81556    0.77356    0.26623    1.000
    N5123    N        0.86759    0.80014    0.29950    1.000
    Si5124   Si       0.83977    0.88609    0.35559    1.000
    Si5125   Si       0.86360    0.97681    0.28824    1.000
    N5126    N        0.82152    0.98268    0.28579    1.000
    Si5127   Si       0.84541    0.95082    0.36210    1.000
    Si5128   Si       0.85743    0.91425    0.24821    1.000
    N5129    N        0.81811    0.91214    0.26764    1.000
    N5130    N        0.81534    0.92465    0.35313    1.000
    N5131    N        0.87212    0.97201    0.33277    1.000
    N5132    N        0.86388    0.85890    0.41080    1.000
    Si5133   Si       0.82074    0.84591    0.41108    1.000
    N5134    N        0.86463    0.79367    0.45252    1.000
    Si5135   Si       0.82610    0.77739    0.43826    1.000
    N5136    N        0.81678    0.80445    0.40465    1.000
    N5137    N        0.86407    0.97165    0.46185    1.000
    Si5138   Si       0.83123    0.95448    0.43917    1.000
    N5139    N        0.83666    0.91228    0.44619    1.000
    N5140    N        0.83478    0.97236    0.39901    1.000
    Si5141   Si       0.86995    0.88781    0.44175    1.000
    N5142    N        0.83177    0.84074    0.56594    1.000
    Si5143   Si       0.85213    0.82865    0.60077    1.000
    N5144    N        0.81855    0.77802    0.53396    1.000
    Si5145   Si       0.84907    0.76255    0.55911    1.000
    Si5146   Si       0.81477    0.87282    0.54003    1.000
    N5147    N        0.86615    0.78714    0.59071    1.000
    N5148    N        0.86142    0.99990    0.58128    1.000
    N5149    N        0.82059    0.94700    0.57624    1.000
    Si5150   Si       0.85690    0.92591    0.56642    1.000
    N5151    N        0.84572    0.90214    0.53134    1.000
    Si5152   Si       0.81830    0.98804    0.58416    1.000
    N5153    N        0.86806    0.89829    0.59686    1.000
    N5154    N        0.84018    0.85835    0.71228    1.000
    N5155    N        0.84597    0.84286    0.64036    1.000
    Si5156   Si       0.82535    0.86530    0.67100    1.000
    N5157    N        0.85127    0.79996    0.73947    1.000
    Si5158   Si       0.81655    0.77957    0.72336    1.000
    Si5159   Si       0.82063    0.88182    0.74235    1.000
    N5160    N        0.83702    0.92025    0.73677    1.000
    N5161    N        0.83903    0.90551    0.66264    1.000
    Si5162   Si       0.81888    0.99827    0.66626    1.000
    Si5163   Si       0.83782    0.93450    0.69508    1.000
    Si5164   Si       0.83738    0.82285    0.77487    1.000
    N5165    N        0.83408    0.86765    0.78151    1.000
    N5166    N        0.82460    0.84866    0.85016    1.000
    Si5167   Si       0.84585    0.87667    0.82274    1.000
    N5168    N        0.83380    0.91553    0.83846    1.000
    N5169    N        0.84961    0.97282    0.77342    1.000
    N5170    N        0.84556    0.78962    0.88942    1.000
    Si5171   Si       0.83024    0.83106    0.89052    1.000
    N5172    N        0.82193    0.81283    0.96527    1.000
    N5173    N        0.85600    0.84880    0.91959    1.000
    Si5174   Si       0.86311    0.82362    0.95490    1.000
    Si5175   Si       0.82055    0.77512    0.99054    1.000
    Si5176   Si       0.81342    0.75997    0.87992    1.000
    Si5177   Si       0.85527    0.93071    0.87284    1.000
    Si5178   Si       0.86882    0.89443    0.98371    1.000
    Si5179   Si       0.82653    0.98330    0.92619    1.000
    N5180    N        0.82553    0.94920    0.89924    1.000
    N5181    N        0.84388    0.97214    0.96591    1.000
    N5182    N        0.91151    0.03892    0.01946    1.000
    Si5183   Si       0.88848    0.06522    0.11338    1.000
    N5184    N        0.88525    0.03359    0.08269    1.000
    N5185    N        0.92743    0.08535    0.10606    1.000
    Si5186   Si       0.87253    0.04145    0.03940    1.000
    N5187    N        0.87690    0.25145    0.00248    1.000
    N5188    N        0.90522    0.14136    0.05616    1.000
    Si5189   Si       0.91529    0.14739    0.01433    1.000
    Si5190   Si       0.89801    0.21991    0.02479    1.000
    N5191    N        0.89423    0.16972    0.11416    1.000
    N5192    N        0.89365    0.18313    0.00160    1.000
    Si5193   Si       0.87552    0.16659    0.07554    1.000
    N5194    N        0.87434    0.20818    0.06272    1.000
    Si5195   Si       0.90287    0.02441    0.23703    1.000
    N5196    N        0.88061    0.04442    0.15195    1.000
    Si5197   Si       0.91459    0.01653    0.15398    1.000
    N5198    N        0.88166    0.06153    0.22501    1.000
    Si5199   Si       0.89571    0.07256    0.18528    1.000
    N5200    N        0.87520    0.10918    0.17831    1.000
    N5201    N        0.88986    0.12827    0.24272    1.000
    N5202    N        0.88935    0.18032    0.18222    1.000
    Si5203   Si       0.89321    0.14036    0.20085    1.000
    Si5204   Si       0.90579    0.23888    0.22901    1.000
    N5205    N        0.89640    0.08265    0.29172    1.000
    Si5206   Si       0.89101    0.04568    0.36260    1.000
    N5207    N        0.91495    0.08236    0.36542    1.000
    Si5208   Si       0.92151    0.09945    0.32573    1.000
    N5209    N        0.92295    0.01874    0.34733    1.000
    Si5210   Si       0.90742    0.08870    0.25099    1.000
    N5211    N        0.88255    0.01275    0.27445    1.000
    N5212    N        0.90961    0.14064    0.31816    1.000
    Si5213   Si       0.88127    0.14106    0.28523    1.000
    N5214    N        0.90401    0.20931    0.33444    1.000
    Si5215   Si       0.88906    0.22109    0.29696    1.000
    N5216    N        0.91338    0.24669    0.27333    1.000
    N5217    N        0.87625    0.18491    0.27819    1.000
    Si5218   Si       0.90058    0.05490    0.43060    1.000
    N5219    N        0.88836    0.09696    0.43831    1.000
    Si5220   Si       0.88609    0.10891    0.48032    1.000
    N5221    N        0.89501    0.03455    0.46794    1.000
    N5222    N        0.87741    0.03360    0.40141    1.000
    Si5223   Si       0.92674    0.00994    0.48710    1.000
    Si5224   Si       0.87557    0.18503    0.45658    1.000
    Si5225   Si       0.91499    0.19936    0.39854    1.000
    N5226    N        0.89931    0.20472    0.48470    1.000
    N5227    N        0.89393    0.16870    0.41964    1.000
    N5228    N        0.88517    0.23418    0.39350    1.000
    Si5229   Si       0.89949    0.09313    0.58423    1.000
    N5230    N        0.88284    0.06103    0.55787    1.000
    N5231    N        0.91983    0.11372    0.50467    1.000
    Si5232   Si       0.87900    0.01910    0.54639    1.000
    N5233    N        0.92889    0.12431    0.57349    1.000
    Si5234   Si       0.88116    0.21264    0.52498    1.000
    N5235    N        0.90433    0.18100    0.54627    1.000
    Si5236   Si       0.91865    0.20040    0.58309    1.000
    N5237    N        0.91951    0.24207    0.57189    1.000
    Si5238   Si       0.92673    0.14538    0.53532    1.000
    N5239    N        0.90822    0.08730    0.62488    1.000
    N5240    N        0.90879    0.04797    0.71023    1.000
    N5241    N        0.91366    0.11389    0.68323    1.000
    Si5242   Si       0.88045    0.10529    0.65599    1.000
    N5243    N        0.89680    0.19888    0.62130    1.000
    N5244    N        0.90376    0.22395    0.74097    1.000
    Si5245   Si       0.87601    0.21427    0.70799    1.000
    N5246    N        0.88199    0.24369    0.67676    1.000
    N5247    N        0.89082    0.17885    0.68756    1.000
    Si5248   Si       0.89489    0.23993    0.63586    1.000
    Si5249   Si       0.91715    0.15116    0.70641    1.000
    N5250    N        0.90698    0.02292    0.77305    1.000
    N5251    N        0.88049    0.08619    0.76554    1.000
    N5252    N        0.90271    0.08775    0.86354    1.000
    Si5253   Si       0.91415    0.06115    0.75256    1.000
    Si5254   Si       0.88353    0.12910    0.77361    1.000
    Si5255   Si       0.87622    0.11810    0.84972    1.000
    N5256    N        0.89821    0.13492    0.81373    1.000
    N5257    N        0.91006    0.20169    0.80753    1.000
    Si5258   Si       0.89155    0.24007    0.81653    1.000
    Si5259   Si       0.92173    0.19416    0.76702    1.000
    N5260    N        0.89051    0.25212    0.85556    1.000
    N5261    N        0.91062    0.15585    0.74965    1.000
    Si5262   Si       0.92575    0.16532    0.82819    1.000
    N5263    N        0.88002    0.08222    0.92861    1.000
    N5264    N        0.91890    0.02748    0.89419    1.000
    Si5265   Si       0.89119    0.11467    0.95654    1.000
    Si5266   Si       0.91017    0.07011    0.89999    1.000
    N5267    N        0.90857    0.10833    0.99538    1.000
    N5268    N        0.93142    0.14946    0.87006    1.000
    N5269    N        0.91307    0.14739    0.94026    1.000
    Si5270   Si       0.90476    0.16260    0.90033    1.000
    Si5271   Si       0.88068    0.23260    0.89460    1.000
    N5272    N        0.91392    0.20403    0.90077    1.000
    N5273    N        0.91667    0.28269    0.07079    1.000
    N5274    N        0.91851    0.31032    0.00980    1.000
    N5275    N        0.88145    0.37243    0.01555    1.000
    Si5276   Si       0.87809    0.29251    0.00546    1.000
    Si5277   Si       0.87783    0.29977    0.07541    1.000
    N5278    N        0.87922    0.34174    0.08343    1.000
    Si5279   Si       0.91859    0.35184    0.00311    1.000
    Si5280   Si       0.90145    0.43586    0.07579    1.000
    N5281    N        0.91395    0.43509    0.03456    1.000
    N5282    N        0.88309    0.47523    0.08237    1.000
    Si5283   Si       0.89383    0.45396    0.00075    1.000
    N5284    N        0.91526    0.49226    0.99210    1.000
    Si5285   Si       0.89268    0.35060    0.12388    1.000
    N5286    N        0.88577    0.36235    0.21760    1.000
    Si5287   Si       0.91402    0.29486    0.16571    1.000
    N5288    N        0.90983    0.27674    0.20480    1.000
    N5289    N        0.88146    0.32009    0.15281    1.000
    Si5290   Si       0.92376    0.46328    0.18382    1.000
    N5291    N        0.87806    0.46731    0.19493    1.000
    N5292    N        0.92115    0.41542    0.18326    1.000
    Si5293   Si       0.88378    0.40508    0.20403    1.000
    N5294    N        0.92104    0.49598    0.15267    1.000
    N5295    N        0.88164    0.38959    0.13679    1.000
    Si5296   Si       0.88961    0.46676    0.23808    1.000
    Si5297   Si       0.92242    0.40376    0.13929    1.000
    N5298    N        0.88420    0.42301    0.24411    1.000
    N5299    N        0.90464    0.36967    0.29050    1.000
    Si5300   Si       0.89176    0.34582    0.32422    1.000
    N5301    N        0.89021    0.30549    0.30749    1.000
    N5302    N        0.92442    0.35131    0.35418    1.000
    Si5303   Si       0.92541    0.28459    0.29092    1.000
    Si5304   Si       0.89233    0.45086    0.30688    1.000
    N5305    N        0.88448    0.48250    0.27813    1.000
    N5306    N        0.88510    0.47402    0.34189    1.000
    Si5307   Si       0.87444    0.39569    0.27476    1.000
    Si5308   Si       0.90859    0.35983    0.39497    1.000
    N5309    N        0.91658    0.26992    0.46583    1.000
    N5310    N        0.90385    0.32152    0.41379    1.000
    Si5311   Si       0.87967    0.28351    0.48482    1.000
    Si5312   Si       0.92094    0.34023    0.49424    1.000
    N5313    N        0.87393    0.38355    0.38695    1.000
    N5314    N        0.88139    0.32459    0.49554    1.000
    Si5315   Si       0.88249    0.48778    0.48857    1.000
    N5316    N        0.88231    0.44454    0.48494    1.000
    N5317    N        0.92294    0.38172    0.48446    1.000
    Si5318   Si       0.90578    0.46406    0.37761    1.000
    N5319    N        0.92513    0.50200    0.39267    1.000
    N5320    N        0.88700    0.31297    0.56652    1.000
    Si5321   Si       0.88571    0.26853    0.56576    1.000
    Si5322   Si       0.92578    0.33231    0.56716    1.000
    N5323    N        0.87691    0.25817    0.52414    1.000
    N5324    N        0.87460    0.37962    0.58172    1.000
    N5325    N        0.90683    0.42337    0.54853    1.000
    Si5326   Si       0.91248    0.40518    0.58981    1.000
    Si5327   Si       0.91458    0.42086    0.50419    1.000
    N5328    N        0.92138    0.50444    0.50094    1.000
    N5329    N        0.91357    0.30878    0.66974    1.000
    Si5330   Si       0.89084    0.34353    0.68550    1.000
    N5331    N        0.90712    0.35595    0.72318    1.000
    N5332    N        0.91307    0.28626    0.73018    1.000
    Si5333   Si       0.88361    0.28281    0.69587    1.000
    N5334    N        0.88642    0.37845    0.66218    1.000
    Si5335   Si       0.88006    0.46664    0.63974    1.000
    Si5336   Si       0.90590    0.41882    0.66401    1.000
    Si5337   Si       0.88863    0.45841    0.72505    1.000
    N5338    N        0.89089    0.42675    0.62205    1.000
    N5339    N        0.87665    0.41720    0.73539    1.000
    N5340    N        0.88818    0.45549    0.68086    1.000
    N5341    N        0.89854    0.50576    0.62976    1.000
    N5342    N        0.90897    0.27322    0.79488    1.000
    N5343    N        0.89412    0.33409    0.83093    1.000
    Si5344   Si       0.87963    0.27457    0.76343    1.000
    Si5345   Si       0.92465    0.30743    0.81163    1.000
    Si5346   Si       0.90062    0.34655    0.87403    1.000
    Si5347   Si       0.90033    0.38540    0.75496    1.000
    N5348    N        0.90043    0.43787    0.83028    1.000
    N5349    N        0.91705    0.46826    0.76274    1.000
    Si5350   Si       0.90656    0.42562    0.87143    1.000
    Si5351   Si       0.92785    0.43946    0.79622    1.000
    N5352    N        0.87639    0.32358    0.89934    1.000
    Si5353   Si       0.89024    0.30293    0.93343    1.000
    N5354    N        0.91209    0.36414    0.95848    1.000
    N5355    N        0.87865    0.26019    0.92743    1.000
    N5356    N        0.88985    0.45944    0.89704    1.000
    Si5357   Si       0.89333    0.49969    0.87694    1.000
    Si5358   Si       0.87904    0.38842    0.97419    1.000
    N5359    N        0.88639    0.38888    0.87528    1.000
    N5360    N        0.88492    0.42968    0.96606    1.000
    N5361    N        0.88334    0.58926    0.06879    1.000
    Si5362   Si       0.92120    0.56718    0.06940    1.000
    Si5363   Si       0.90413    0.53221    0.00276    1.000
    N5364    N        0.92213    0.54070    0.10365    1.000
    Si5365   Si       0.87314    0.62921    0.08104    1.000
    N5366    N        0.90739    0.70636    0.09164    1.000
    N5367    N        0.88704    0.65195    0.04670    1.000
    Si5368   Si       0.90122    0.69264    0.04993    1.000
    Si5369   Si       0.88172    0.63982    0.00491    1.000
    Si5370   Si       0.90788    0.74363    0.11329    1.000
    Si5371   Si       0.92061    0.67390    0.11735    1.000
    N5372    N        0.88948    0.64247    0.11911    1.000
    N5373    N        0.89362    0.56409    0.16653    1.000
    Si5374   Si       0.89909    0.53236    0.13943    1.000
    Si5375   Si       0.89920    0.59033    0.19954    1.000
    Si5376   Si       0.88817    0.72190    0.18493    1.000
    N5377    N        0.90448    0.63240    0.18815    1.000
    N5378    N        0.91295    0.70277    0.21263    1.000
    N5379    N        0.91452    0.74191    0.15545    1.000
    N5380    N        0.90503    0.54923    0.26940    1.000
    N5381    N        0.90611    0.57144    0.36178    1.000
    Si5382   Si       0.89894    0.51764    0.30027    1.000
    N5383    N        0.92013    0.62372    0.27326    1.000
    Si5384   Si       0.87737    0.63128    0.28734    1.000
    Si5385   Si       0.93045    0.53563    0.36514    1.000
    Si5386   Si       0.86889    0.57214    0.33657    1.000
    N5387    N        0.88527    0.66081    0.31823    1.000
    Si5388   Si       0.91033    0.69713    0.31292    1.000
    N5389    N        0.88357    0.72987    0.30540    1.000
    Si5390   Si       0.92305    0.60947    0.37550    1.000
    Si5391   Si       0.88202    0.55331    0.45233    1.000
    N5392    N        0.92125    0.54987    0.43773    1.000
    N5393    N        0.88664    0.63331    0.38033    1.000
    N5394    N        0.88141    0.50570    0.44863    1.000
    Si5395   Si       0.92415    0.50648    0.43628    1.000
    Si5396   Si       0.91612    0.71200    0.44365    1.000
    N5397    N        0.87520    0.70408    0.43063    1.000
    Si5398   Si       0.89576    0.65691    0.48080    1.000
    N5399    N        0.91308    0.74466    0.47128    1.000
    N5400    N        0.89196    0.74975    0.38129    1.000
    N5401    N        0.89150    0.54915    0.55589    1.000
    Si5402   Si       0.90489    0.57452    0.58824    1.000
    N5403    N        0.91491    0.61712    0.57937    1.000
    N5404    N        0.89821    0.62762    0.51131    1.000
    Si5405   Si       0.92586    0.52738    0.53927    1.000
    Si5406   Si       0.88770    0.63597    0.55217    1.000
    Si5407   Si       0.91431    0.69487    0.59285    1.000
    N5408    N        0.88997    0.67772    0.56200    1.000
    N5409    N        0.87928    0.75015    0.52811    1.000
    N5410    N        0.88162    0.57875    0.62583    1.000
    Si5411   Si       0.88806    0.54216    0.64778    1.000
    N5412    N        0.88823    0.62283    0.68036    1.000
    N5413    N        0.91805    0.55802    0.67332    1.000
    N5414    N        0.92189    0.52895    0.73535    1.000
    Si5415   Si       0.92491    0.60055    0.67566    1.000
    Si5416   Si       0.87784    0.53132    0.74051    1.000
    N5417    N        0.88866    0.70053    0.62642    1.000
    Si5418   Si       0.87643    0.65611    0.70840    1.000
    N5419    N        0.91189    0.65534    0.73420    1.000
    N5420    N        0.90251    0.75185    0.69373    1.000
    Si5421   Si       0.90949    0.56674    0.78937    1.000
    N5422    N        0.90513    0.57448    0.83431    1.000
    N5423    N        0.89332    0.60085    0.76545    1.000
    N5424    N        0.87521    0.54056    0.78150    1.000
    N5425    N        0.88573    0.63078    0.86678    1.000
    Si5426   Si       0.91297    0.73390    0.79660    1.000
    Si5427   Si       0.92317    0.65233    0.86409    1.000
    N5428    N        0.87009    0.73904    0.80594    1.000
    Si5429   Si       0.90108    0.56220    0.92349    1.000
    N5430    N        0.89941    0.55522    0.96652    1.000
    N5431    N        0.87905    0.52777    0.90761    1.000
    N5432    N        0.87584    0.59973    0.92717    1.000
    N5433    N        0.88019    0.67677    0.92027    1.000
    N5434    N        0.89705    0.73685    0.89545    1.000
    Si5435   Si       0.90709    0.68916    0.95355    1.000
    N5436    N        0.91533    0.65497    0.98082    1.000
    N5437    N        0.88987    0.72153    0.97712    1.000
    Si5438   Si       0.87136    0.63732    0.90663    1.000
    N5439    N        0.91327    0.86204    0.06425    1.000
    N5440    N        0.88404    0.80731    0.07941    1.000
    Si5441   Si       0.92575    0.82279    0.08514    1.000
    Si5442   Si       0.87109    0.85842    0.07392    1.000
    Si5443   Si       0.90153    0.99372    0.08688    1.000
    N5444    N        0.88526    0.96567    0.05912    1.000
    Si5445   Si       0.91596    0.94953    0.03000    1.000
    N5446    N        0.88736    0.93287    1.00000    1.000
    N5447    N        0.91941    0.83454    0.24037    1.000
    Si5448   Si       0.92470    0.78383    0.15488    1.000
    Si5449   Si       0.88190    0.84621    0.21629    1.000
    N5450    N        0.89201    0.86770    0.18143    1.000
    Si5451   Si       0.89305    0.84724    0.14420    1.000
    N5452    N        0.88384    0.80418    0.15240    1.000
    N5453    N        0.91004    0.00569    0.19758    1.000
    Si5454   Si       0.91229    0.94213    0.13693    1.000
    N5455    N        0.91190    0.93757    0.18200    1.000
    N5456    N        0.87764    0.91670    0.13414    1.000
    Si5457   Si       0.87989    0.90859    0.17935    1.000
    N5458    N        0.90409    0.98318    0.12843    1.000
    N5459    N        0.91600    0.85551    0.30742    1.000
    Si5460   Si       0.91685    0.86864    0.26638    1.000
    Si5461   Si       0.90040    0.76824    0.29114    1.000
    Si5462   Si       0.88223    0.77782    0.34896    1.000
    N5463    N        0.88458    0.82179    0.35958    1.000
    N5464    N        0.92241    0.77601    0.32904    1.000
    Si5465   Si       0.87782    0.83829    0.31993    1.000
    N5466    N        0.92302    0.76122    0.25674    1.000
    N5467    N        0.87626    0.87662    0.24814    1.000
    Si5468   Si       0.92344    0.94526    0.26906    1.000
    Si5469   Si       0.91484    0.97468    0.34134    1.000
    N5470    N        0.88039    0.94396    0.26807    1.000
    N5471    N        0.87151    0.91487    0.36986    1.000
    N5472    N        0.92776    0.87887    0.37620    1.000
    N5473    N        0.91979    0.82999    0.42975    1.000
    Si5474   Si       0.90045    0.84574    0.39237    1.000
    Si5475   Si       0.88988    0.82711    0.45997    1.000
    N5476    N        0.87689    0.86508    0.47740    1.000
    Si5477   Si       0.87569    0.76487    0.48694    1.000
    Si5478   Si       0.90046    0.94611    0.46258    1.000
    N5479    N        0.90113    0.91559    0.43142    1.000
    Si5480   Si       0.91028    0.91644    0.38842    1.000
    N5481    N        0.90607    0.86864    0.54180    1.000
    N5482    N        0.89581    0.84108    0.60456    1.000
    Si5483   Si       0.91087    0.80200    0.59226    1.000
    Si5484   Si       0.90251    0.87694    0.58228    1.000
    Si5485   Si       0.92798    0.83654    0.52220    1.000
    N5486    N        0.90997    0.80608    0.49450    1.000
    N5487    N        0.92694    0.00227    0.59604    1.000
    Si5488   Si       0.88341    0.88944    0.51339    1.000
    Si5489   Si       0.89331    0.97553    0.59599    1.000
    N5490    N        0.89574    0.94631    0.56377    1.000
    N5491    N        0.90971    0.99688    0.52543    1.000
    Si5492   Si       0.91823    0.95385    0.52733    1.000
    N5493    N        0.90083    0.92567    0.49964    1.000
    N5494    N        0.89454    0.82122    0.68051    1.000
    Si5495   Si       0.88917    0.84836    0.64840    1.000
    Si5496   Si       0.91643    0.78506    0.67019    1.000
    Si5497   Si       0.87579    0.83298    0.71984    1.000
    N5498    N        0.92612    0.78183    0.62889    1.000
    N5499    N        0.87555    0.95447    0.70304    1.000
    N5500    N        0.88939    0.95412    0.63250    1.000
    Si5501   Si       0.89239    0.97719    0.66974    1.000
    N5502    N        0.90594    0.88826    0.65180    1.000
    Si5503   Si       0.87313    0.91295    0.63697    1.000
    Si5504   Si       0.92333    0.88697    0.74430    1.000
    Si5505   Si       0.90192    0.83679    0.79160    1.000
    N5506    N        0.88811    0.86769    0.81837    1.000
    N5507    N        0.91470    0.76342    0.76250    1.000
    N5508    N        0.89784    0.85239    0.75213    1.000
    N5509    N        0.87149    0.80427    0.79623    1.000
    Si5510   Si       0.87265    0.76863    0.76759    1.000
    Si5511   Si       0.91223    0.88665    0.84665    1.000
    N5512    N        0.90703    0.92787    0.75583    1.000
    Si5513   Si       0.91545    0.96211    0.85402    1.000
    N5514    N        0.90014    0.98542    0.82151    1.000
    N5515    N        0.92224    0.92587    0.83145    1.000
    Si5516   Si       0.87328    0.00450    0.79381    1.000
    Si5517   Si       0.86907    0.94720    0.74467    1.000
    N5518    N        0.92322    0.79841    0.88479    1.000
    Si5519   Si       0.92593    0.86055    0.97151    1.000
    N5520    N        0.88349    0.85389    0.98076    1.000
    Si5521   Si       0.88601    0.77906    0.90316    1.000
    N5522    N        0.88627    0.78674    0.94647    1.000
    N5523    N        0.92496    0.86523    0.92910    1.000
    Si5524   Si       0.89278    0.76372    0.98358    1.000
    Si5525   Si       0.88449    0.88122    0.91702    1.000
    N5526    N        0.88151    0.89722    0.87707    1.000
    Si5527   Si       0.89232    0.99815    0.91110    1.000
    N5528    N        0.88214    0.96472    0.88128    1.000
    Si5529   Si       0.88023    0.95144    0.96013    1.000
    N5530    N        0.91239    0.97599    0.94210    1.000
    N5531    N        0.87538    0.91127    0.94405    1.000
    N5532    N        0.95529    0.09193    0.04404    1.000
    N5533    N        0.98006    0.03160    0.02050    1.000
    Si5534   Si       0.93680    0.11641    0.07499    1.000
    Si5535   Si       0.94295    0.00846    0.02805    1.000
    Si5536   Si       0.93440    0.07624    0.00623    1.000
    Si5537   Si       0.96367    0.06665    0.11883    1.000
    Si5538   Si       0.99040    0.06554    0.04474    1.000
    N5539    N        0.94055    0.21793    0.09213    1.000
    N5540    N        0.96173    0.14684    0.09640    1.000
    N5541    N        0.93780    0.23902    0.02035    1.000
    N5542    N        0.95815    0.15409    0.00365    1.000
    Si5543   Si       0.93892    0.18113    0.11074    1.000
    N5544    N        0.93745    0.07718    0.18926    1.000
    N5545    N        0.95206    0.03017    0.13975    1.000
    Si5546   Si       0.98058    0.07749    0.18665    1.000
    Si5547   Si       0.98675    0.01090    0.15589    1.000
    Si5548   Si       0.93202    0.18642    0.18361    1.000
    N5549    N        0.93656    0.14449    0.19801    1.000
    Si5550   Si       0.97932    0.21164    0.22926    1.000
    N5551    N        0.95480    0.19285    0.15027    1.000
    N5552    N        0.93908    0.21611    0.21464    1.000
    Si5553   Si       0.96577    0.13577    0.22739    1.000
    N5554    N        0.95544    0.07376    0.31517    1.000
    Si5555   Si       0.96135    0.03489    0.33330    1.000
    Si5556   Si       0.96634    0.07194    0.27317    1.000
    N5557    N        0.94959    0.10798    0.25679    1.000
    N5558    N        0.93822    0.04558    0.25214    1.000
    N5559    N        0.96762    0.17909    0.31345    1.000
    N5560    N        0.98399    0.17163    0.24586    1.000
    Si5561   Si       0.93074    0.17541    0.33314    1.000
    N5562    N        0.98142    0.04621    0.36964    1.000
    N5563    N        0.97810    0.11292    0.39264    1.000
    Si5564   Si       0.95318    0.07820    0.38595    1.000
    N5565    N        0.94283    0.05850    0.42181    1.000
    Si5566   Si       0.97286    0.05690    0.45542    1.000
    N5567    N        0.98009    0.09972    0.46571    1.000
    N5568    N        0.96097    0.03440    0.48979    1.000
    Si5569   Si       0.93088    0.22972    0.46888    1.000
    N5570    N        0.93943    0.21616    0.42976    1.000
    N5571    N        0.97311    0.21517    0.48412    1.000
    N5572    N        0.94411    0.17629    0.37377    1.000
    Si5573   Si       0.97917    0.20093    0.44137    1.000
    Si5574   Si       0.97911    0.15600    0.38652    1.000
    Si5575   Si       0.96423    0.10740    0.50585    1.000
    N5576    N        0.98072    0.07789    0.53335    1.000
    N5577    N        0.97929    0.05212    0.59535    1.000
    Si5578   Si       0.96776    0.01007    0.58918    1.000
    Si5579   Si       0.98650    0.03643    0.52319    1.000
    Si5580   Si       0.96066    0.13928    0.59848    1.000
    N5581    N        0.95639    0.18158    0.59413    1.000
    N5582    N        0.96709    0.15118    0.52147    1.000
    N5583    N        0.98730    0.24215    0.59673    1.000
    Si5584   Si       0.99124    0.18359    0.50863    1.000
    Si5585   Si       0.93991    0.09408    0.65221    1.000
    N5586    N        0.96253    0.05793    0.66258    1.000
    N5587    N        0.97482    0.03145    0.72349    1.000
    Si5588   Si       0.94549    0.03248    0.69300    1.000
    N5589    N        0.96140    0.12861    0.64062    1.000
    Si5590   Si       0.98850    0.06693    0.74586    1.000
    Si5591   Si       0.97844    0.15570    0.66889    1.000
    N5592    N        0.97735    0.19767    0.65469    1.000
    Si5593   Si       0.98639    0.17783    0.73742    1.000
    Si5594   Si       0.93995    0.24828    0.73519    1.000
    N5595    N        0.95905    0.16026    0.70723    1.000
    N5596    N        0.95009    0.03589    0.82532    1.000
    N5597    N        0.97453    0.10319    0.83539    1.000
    N5598    N        0.95113    0.07631    0.76485    1.000
    Si5599   Si       0.96767    0.07028    0.80562    1.000
    Si5600   Si       0.95187    0.02066    0.86653    1.000
    Si5601   Si       0.94378    0.10806    0.86511    1.000
    Si5602   Si       0.98445    0.19569    0.85104    1.000
    N5603    N        0.96942    0.16797    0.82119    1.000
    N5604    N        0.96869    0.23183    0.83367    1.000
    N5605    N        0.96262    0.20585    0.75826    1.000
    Si5606   Si       0.97901    0.23482    0.78925    1.000
    N5607    N        0.99092    0.03131    0.88001    1.000
    Si5608   Si       0.97833    0.08996    0.93764    1.000
    N5609    N        0.96142    0.07083    0.97294    1.000
    N5610    N        0.94963    0.08846    0.90389    1.000
    N5611    N        0.98471    0.18940    0.89362    1.000
    Si5612   Si       0.94989    0.15860    0.95974    1.000
    N5613    N        0.96260    0.20100    0.95731    1.000
    Si5614   Si       0.96784    0.22818    0.99036    1.000
    Si5615   Si       0.95495    0.21331    0.91345    1.000
    N5616    N        0.98127    0.13402    0.94171    1.000
    N5617    N        0.96410    0.25328    0.90122    1.000
    Si5618   Si       0.94158    0.28175    0.03426    1.000
    N5619    N        0.95355    0.37334    0.01592    1.000
    N5620    N        0.98133    0.28267    0.09446    1.000
    N5621    N        0.98180    0.29993    0.03415    1.000
    Si5622   Si       0.94237    0.26006    0.09648    1.000
    Si5623   Si       0.95131    0.41640    0.02353    1.000
    Si5624   Si       0.97456    0.43603    0.09771    1.000
    N5625    N        0.97946    0.42360    0.05547    1.000
    N5626    N        0.98386    0.47772    0.10870    1.000
    N5627    N        0.98669    0.49955    0.00502    1.000
    N5628    N        0.93239    0.43219    0.10781    1.000
    N5629    N        0.94070    0.32554    0.18446    1.000
    Si5630   Si       0.96454    0.34826    0.15686    1.000
    Si5631   Si       0.94278    0.30262    0.22127    1.000
    Si5632   Si       0.98156    0.28306    0.13807    1.000
    N5633    N        0.97969    0.28432    0.21538    1.000
    N5634    N        0.93778    0.27216    0.13783    1.000
    N5635    N        0.95932    0.37465    0.24005    1.000
    N5636    N        0.93549    0.36123    0.12826    1.000
    N5637    N        0.96917    0.46390    0.17407    1.000
    Si5638   Si       0.95879    0.40207    0.20564    1.000
    N5639    N        0.98399    0.38303    0.17454    1.000
    N5640    N        0.98241    0.42995    0.23232    1.000
    Si5641   Si       0.96272    0.49431    0.14335    1.000
    N5642    N        0.93077    0.46944    0.22875    1.000
    Si5643   Si       0.96686    0.35376    0.34252    1.000
    N5644    N        0.94786    0.27862    0.32659    1.000
    Si5645   Si       0.97238    0.28037    0.36072    1.000
    N5646    N        0.97436    0.35488    0.30020    1.000
    Si5647   Si       0.94045    0.35484    0.27156    1.000
    N5648    N        0.93940    0.31275    0.26215    1.000
    Si5649   Si       0.96435    0.43056    0.32836    1.000
    Si5650   Si       0.95710    0.45129    0.26148    1.000
    N5651    N        0.97656    0.48808    0.27670    1.000
    N5652    N        0.97879    0.39266    0.35363    1.000
    Si5653   Si       0.97221    0.50008    0.31832    1.000
    N5654    N        0.93249    0.43912    0.29655    1.000
    N5655    N        0.93416    0.43431    0.36403    1.000
    N5656    N        0.98733    0.46676    0.34109    1.000
    Si5657   Si       0.95317    0.37430    0.45345    1.000
    N5658    N        0.94931    0.33008    0.46131    1.000
    N5659    N        0.96049    0.27979    0.40411    1.000
    Si5660   Si       0.93344    0.29657    0.43510    1.000
    N5661    N        0.93884    0.38486    0.41458    1.000
    Si5662   Si       0.98972    0.31850    0.47796    1.000
    Si5663   Si       0.95999    0.48457    0.49469    1.000
    Si5664   Si       0.96151    0.41114    0.38955    1.000
    N5665    N        0.96089    0.48379    0.45076    1.000
    N5666    N        0.95437    0.30377    0.58357    1.000
    N5667    N        0.94454    0.32988    0.52864    1.000
    N5668    N        0.93776    0.36830    0.58699    1.000
    Si5669   Si       0.98492    0.31467    0.54741    1.000
    Si5670   Si       0.97540    0.33394    0.61105    1.000
    Si5671   Si       0.95099    0.26328    0.59479    1.000
    Si5672   Si       0.97576    0.39183    0.58833    1.000
    N5673    N        0.95063    0.42952    0.59181    1.000
    N5674    N        0.95251    0.44549    0.51288    1.000
    Si5675   Si       0.94118    0.45049    0.55483    1.000
    N5676    N        0.93599    0.49381    0.56817    1.000
    Si5677   Si       0.95137    0.28618    0.66629    1.000
    N5678    N        0.96966    0.32513    0.71718    1.000
    N5679    N        0.98224    0.30487    0.64096    1.000
    Si5680   Si       0.93250    0.32385    0.73785    1.000
    N5681    N        0.96554    0.25688    0.69905    1.000
    N5682    N        0.93591    0.25618    0.63526    1.000
    Si5683   Si       0.98676    0.28551    0.72576    1.000
    N5684    N        0.98893    0.37372    0.62814    1.000
    Si5685   Si       0.96806    0.44936    0.63045    1.000
    N5686    N        0.96662    0.49272    0.63216    1.000
    N5687    N        0.94830    0.42717    0.66052    1.000
    N5688    N        0.95522    0.30073    0.84655    1.000
    N5689    N        0.97693    0.37030    0.82668    1.000
    Si5690   Si       0.96938    0.34091    0.85794    1.000
    Si5691   Si       0.96353    0.37126    0.78613    1.000
    Si5692   Si       0.97533    0.26519    0.86151    1.000
    N5693    N        0.93948    0.33357    0.78012    1.000
    N5694    N        0.97170    0.26712    0.76212    1.000
    N5695    N        0.96013    0.46255    0.81366    1.000
    Si5696   Si       0.95668    0.47187    0.85453    1.000
    N5697    N        0.98033    0.50076    0.75930    1.000
    N5698    N        0.93264    0.39949    0.77983    1.000
    Si5699   Si       0.93868    0.50378    0.76828    1.000
    N5700    N        0.98155    0.26573    0.97237    1.000
    Si5701   Si       0.94197    0.34916    0.93091    1.000
    N5702    N        0.94043    0.35197    0.88796    1.000
    N5703    N        0.97681    0.37156    0.94512    1.000
    Si5704   Si       0.96985    0.28188    0.93345    1.000
    N5705    N        0.93366    0.30523    0.93657    1.000
    N5706    N        0.96042    0.43769    0.98700    1.000
    N5707    N        0.94850    0.43262    0.87638    1.000
    N5708    N        0.95838    0.49861    0.93995    1.000
    Si5709   Si       0.95585    0.48116    0.97917    1.000
    Si5710   Si       0.98623    0.40934    0.96689    1.000
    N5711    N        0.95734    0.58755    0.08128    1.000
    Si5712   Si       0.96714    0.55008    0.10491    1.000
    Si5713   Si       0.97476    0.53257    0.03054    1.000
    N5714    N        0.93383    0.54580    0.03194    1.000
    Si5715   Si       0.98574    0.59592    0.04682    1.000
    N5716    N        0.98763    0.53288    0.07056    1.000
    N5717    N        0.97472    0.63017    0.02278    1.000
    N5718    N        0.96211    0.66870    0.09921    1.000
    Si5719   Si       0.96806    0.69659    0.06898    1.000
    N5720    N        0.96585    0.74101    0.06319    1.000
    Si5721   Si       0.95279    0.73394    0.01958    1.000
    N5722    N        0.93966    0.69538    0.03368    1.000
    N5723    N        0.93799    0.58348    0.21991    1.000
    Si5724   Si       0.96988    0.61130    0.20714    1.000
    N5725    N        0.98280    0.53349    0.14021    1.000
    N5726    N        0.97734    0.62519    0.16413    1.000
    N5727    N        0.95838    0.64975    0.22460    1.000
    Si5728   Si       0.93784    0.72192    0.24378    1.000
    N5729    N        0.94098    0.67682    0.15702    1.000
    N5730    N        0.97822    0.72393    0.22464    1.000
    Si5731   Si       0.97883    0.66318    0.13974    1.000
    Si5732   Si       0.93002    0.66582    0.19662    1.000
    N5733    N        0.96512    0.57979    0.28765    1.000
    Si5734   Si       0.97375    0.61399    0.31503    1.000
    N5735    N        0.93370    0.51777    0.32644    1.000
    N5736    N        0.94931    0.62944    0.34697    1.000
    Si5737   Si       0.93012    0.58276    0.26256    1.000
    Si5738   Si       0.94999    0.65438    0.26676    1.000
    Si5739   Si       0.96135    0.67062    0.36124    1.000
    N5740    N        0.93461    0.70098    0.34953    1.000
    N5741    N        0.93507    0.69367    0.27675    1.000
    N5742    N        0.98582    0.64503    0.28772    1.000
    N5743    N        0.96835    0.55645    0.37901    1.000
    Si5744   Si       0.95719    0.56601    0.42076    1.000
    N5745    N        0.94621    0.60764    0.41256    1.000
    Si5746   Si       0.98032    0.63191    0.42480    1.000
    N5747    N        0.98611    0.55098    0.44597    1.000
    N5748    N        0.94457    0.72091    0.41477    1.000
    Si5749   Si       0.93473    0.73627    0.37657    1.000
    Si5750   Si       0.96896    0.67231    0.48426    1.000
    N5751    N        0.93073    0.67412    0.46192    1.000
    Si5752   Si       0.98450    0.70896    0.42254    1.000
    N5753    N        0.98184    0.66943    0.40263    1.000
    N5754    N        0.95681    0.55519    0.53446    1.000
    N5755    N        0.94205    0.55337    0.60088    1.000
    Si5756   Si       0.94953    0.62935    0.60317    1.000
    Si5757   Si       0.98185    0.56815    0.59720    1.000
    Si5758   Si       0.93614    0.50970    0.60753    1.000
    N5759    N        0.93356    0.73138    0.57791    1.000
    N5760    N        0.95069    0.67116    0.60115    1.000
    N5761    N        0.95886    0.68439    0.52284    1.000
    Si5762   Si       0.96465    0.71880    0.54602    1.000
    Si5763   Si       0.98648    0.69533    0.61064    1.000
    Si5764   Si       0.95499    0.75594    0.60885    1.000
    N5765    N        0.96233    0.75644    0.52152    1.000
    Si5766   Si       0.94523    0.54958    0.70691    1.000
    N5767    N        0.94942    0.59448    0.71274    1.000
    N5768    N        0.97874    0.52520    0.69676    1.000
    N5769    N        0.94505    0.61525    0.64359    1.000
    N5770    N        0.97140    0.72729    0.63593    1.000
    N5771    N        0.95626    0.71710    0.72574    1.000
    Si5772   Si       0.93836    0.75609    0.72506    1.000
    Si5773   Si       0.96784    0.60429    0.81884    1.000
    N5774    N        0.94859    0.58990    0.78339    1.000
    N5775    N        0.97190    0.57131    0.84773    1.000
    Si5776   Si       0.93650    0.54549    0.84142    1.000
    N5777    N        0.93306    0.53017    0.80236    1.000
    Si5778   Si       0.93261    0.61657    0.74904    1.000
    N5779    N        0.93626    0.50984    0.86964    1.000
    N5780    N        0.93768    0.69387    0.86115    1.000
    N5781    N        0.94557    0.64051    0.82924    1.000
    Si5782   Si       0.95492    0.68409    0.82260    1.000
    N5783    N        0.97036    0.64588    0.75264    1.000
    N5784    N        0.93067    0.69590    0.78879    1.000
    Si5785   Si       0.94256    0.68146    0.74885    1.000
    Si5786   Si       0.95937    0.52463    0.90752    1.000
    N5787    N        0.94186    0.56424    0.91293    1.000
    N5788    N        0.97554    0.61948    0.95559    1.000
    Si5789   Si       0.96031    0.60444    0.91740    1.000
    N5790    N        0.93741    0.63520    0.90109    1.000
    N5791    N        0.94562    0.70516    0.93872    1.000
    Si5792   Si       0.95779    0.64775    0.98556    1.000
    Si5793   Si       0.93746    0.71861    0.89758    1.000
    Si5794   Si       0.98443    0.71226    0.95947    1.000
    N5795    N        0.96782    0.74845    0.89165    1.000
    N5796    N        0.95438    0.80871    0.05617    1.000
    Si5797   Si       0.97055    0.77682    0.08352    1.000
    Si5798   Si       0.95637    0.80340    0.01369    1.000
    N5799    N        0.98664    0.87135    0.04782    1.000
    N5800    N        0.93445    0.77896    0.11027    1.000
    N5801    N        0.92701    0.76909    0.01019    1.000
    Si5802   Si       0.94578    0.88468    0.04293    1.000
    Si5803   Si       0.96578    0.95067    0.08131    1.000
    N5804    N        0.94321    0.99103    0.06803    1.000
    N5805    N        0.94370    0.92530    0.05368    1.000
    N5806    N        0.94104    0.97428    0.00234    1.000
    N5807    N        0.94365    0.88921    0.99879    1.000
    Si5808   Si       0.96806    0.85805    0.14664    1.000
    N5809    N        0.94373    0.78931    0.19225    1.000
    Si5810   Si       0.93887    0.79604    0.23411    1.000
    N5811    N        0.98306    0.80078    0.23800    1.000
    Si5812   Si       0.98781    0.79342    0.19531    1.000
    N5813    N        0.93262    0.84319    0.12594    1.000
    N5814    N        0.99242    0.82607    0.16700    1.000
    N5815    N        0.95117    0.93788    0.12024    1.000
    N5816    N        0.94597    0.96769    0.24020    1.000
    N5817    N        0.96779    0.97446    0.17305    1.000
    Si5818   Si       0.97818    0.93653    0.15407    1.000
    Si5819   Si       0.93444    0.97009    0.19913    1.000
    N5820    N        0.97064    0.89395    0.16928    1.000
    Si5821   Si       0.98885    0.96294    0.24345    1.000
    Si5822   Si       0.96123    0.78949    0.33969    1.000
    Si5823   Si       0.94480    0.86272    0.33866    1.000
    N5824    N        0.96350    0.82825    0.35838    1.000
    N5825    N        0.97954    0.88065    0.31627    1.000
    N5826    N        0.98733    0.77849    0.30609    1.000
    N5827    N        0.97340    0.75939    0.36909    1.000
    N5828    N        0.93741    0.96107    0.30769    1.000
    N5829    N        0.93844    0.90580    0.26357    1.000
    Si5830   Si       0.98142    0.96697    0.31255    1.000
    Si5831   Si       0.98017    0.90222    0.27815    1.000
    N5832    N        0.98169    0.85574    0.42205    1.000
    Si5833   Si       0.95710    0.83526    0.45302    1.000
    N5834    N        0.97149    0.79606    0.46674    1.000
    Si5835   Si       0.94048    0.77370    0.48929    1.000
    N5836    N        0.95324    0.85964    0.49049    1.000
    N5837    N        0.97656    0.93002    0.42193    1.000
    N5838    N        0.93626    0.97323    0.46694    1.000
    Si5839   Si       0.97131    0.95432    0.38595    1.000
    N5840    N        0.97487    0.99090    0.40981    1.000
    Si5841   Si       0.97371    0.96601    0.44573    1.000
    N5842    N        0.92998    0.95015    0.37243    1.000
    Si5843   Si       0.97286    0.78882    0.54830    1.000
    N5844    N        0.93573    0.80998    0.55741    1.000
    N5845    N        0.98460    0.77573    0.58634    1.000
    N5846    N        0.98459    0.87740    0.54657    1.000
    Si5847   Si       0.97342    0.89279    0.50682    1.000
    N5848    N        0.94043    0.89307    0.59858    1.000
    N5849    N        0.95870    0.93218    0.52948    1.000
    Si5850   Si       0.96464    0.91058    0.56807    1.000
    N5851    N        0.98158    0.00084    0.54956    1.000
    N5852    N        0.95306    0.78530    0.69416    1.000
    N5853    N        0.98160    0.87258    0.65178    1.000
    N5854    N        0.94788    0.88113    0.70986    1.000
    Si5855   Si       0.94641    0.89734    0.64190    1.000
    N5856    N        0.95776    0.93781    0.64711    1.000
    Si5857   Si       0.96839    0.97520    0.66268    1.000
    N5858    N        0.93185    0.99413    0.67670    1.000
    N5859    N        0.98785    0.99782    0.62940    1.000
    Si5860   Si       0.96795    0.83963    0.83223    1.000
    Si5861   Si       0.94629    0.78525    0.78925    1.000
    N5862    N        0.94267    0.82407    0.80183    1.000
    Si5863   Si       0.95113    0.77550    0.86212    1.000
    N5864    N        0.97587    0.77454    0.75820    1.000
    N5865    N        0.94049    0.85942    0.86318    1.000
    N5866    N        0.98443    0.80174    0.84909    1.000
    N5867    N        0.93905    0.75686    0.82257    1.000
    Si5868   Si       0.93506    0.00241    0.80088    1.000
    N5869    N        0.95383    0.89236    0.77804    1.000
    N5870    N        0.95637    0.96715    0.78888    1.000
    N5871    N        0.95422    0.97684    0.86320    1.000
    Si5872   Si       0.93352    0.93026    0.79007    1.000
    Si5873   Si       0.94239    0.83504    0.90017    1.000
    N5874    N        0.94899    0.82468    0.97646    1.000
    N5875    N        0.98256    0.82623    0.91718    1.000
    Si5876   Si       0.97982    0.90664    0.98263    1.000
    N5877    N        0.97351    0.93462    0.95070    1.000
    Si5878   Si       0.95163    0.97392    0.96010    1.000
    N5879    N        0.98020    0.00514    0.94960    1.000
