# CIF file generated by openbabel 3.1.1, see https://openbabel.org
data_I
_chemical_name_common '3.01-41.aims'
_cell_length_a 39.9293
_cell_length_b 39.9293
_cell_length_c 39.9293
_cell_angle_alpha 90
_cell_angle_beta 90
_cell_angle_gamma 90
loop_
    _atom_site_label
    _atom_site_type_symbol
    _atom_site_fract_x
    _atom_site_fract_y
    _atom_site_fract_z
    _atom_site_occupancy
    Si0      Si       0.01061    0.11428    0.02575    1.000
    N1       N        0.03359    0.09074    0.05566    1.000
    N2       N        0.01883    0.06066    0.10948    1.000
    Si3      Si       0.00209    0.10350    0.08673    1.000
    Si4      Si       0.98925    0.02988    0.09921    1.000
    N5       N        0.99627    0.19166    0.01228    1.000
    Si6      Si       0.03516    0.20624    0.02642    1.000
    N7       N        0.03710    0.24781    0.03714    1.000
    N8       N        0.99200    0.13803    0.05596    1.000
    N9       N        0.00843    0.12508    0.12354    1.000
    Si10     Si       0.02672    0.05691    0.15267    1.000
    N11      N        0.99769    0.06088    0.18408    1.000
    N12      N        0.04386    0.01668    0.15533    1.000
    Si13     Si       0.04888    0.12389    0.13837    1.000
    Si14     Si       0.03218    0.24828    0.13810    1.000
    Si15     Si       0.99808    0.22637    0.22269    1.000
    N16      N        0.99745    0.14864    0.18394    1.000
    N17      N        0.01109    0.20970    0.14644    1.000
    Si18     Si       0.02870    0.18162    0.17558    1.000
    N19      N        0.03582    0.20826    0.20974    1.000
    N20      N        0.00710    0.05522    0.32469    1.000
    Si21     Si       0.00788    0.03636    0.28679    1.000
    Si22     Si       0.04037    0.06332    0.35003    1.000
    N23      N        0.98965    0.04457    0.24832    1.000
    Si24     Si       0.00817    0.15701    0.33052    1.000
    N25      N        0.00267    0.24293    0.26326    1.000
    Si26     Si       0.99694    0.23092    0.33380    1.000
    Si27     Si       0.04207    0.24488    0.28230    1.000
    N28      N        0.03661    0.24755    0.32448    1.000
    Si29     Si       0.99453    0.07281    0.41386    1.000
    N30      N        0.01454    0.09041    0.37576    1.000
    N31      N        0.01254    0.10343    0.43728    1.000
    N32      N        0.00651    0.03210    0.41164    1.000
    Si33     Si       0.02698    0.12508    0.40113    1.000
    Si34     Si       0.99399    0.10829    0.47697    1.000
    Si35     Si       0.03180    0.01087    0.44050    1.000
    N36      N        0.99605    0.06890    0.50362    1.000
    Si37     Si       0.00513    0.19541    0.45923    1.000
    Si38     Si       0.02794    0.23348    0.39938    1.000
    N39      N        0.01204    0.23222    0.43854    1.000
    N40      N        0.00708    0.15445    0.37300    1.000
    N41      N        0.99459    0.21933    0.37456    1.000
    N42      N        0.04270    0.17364    0.46481    1.000
    Si43     Si       0.02212    0.09242    0.53324    1.000
    Si44     Si       0.00933    0.08401    0.61058    1.000
    N45      N        0.02484    0.07223    0.57246    1.000
    N46      N        0.01624    0.12851    0.50855    1.000
    Si47     Si       0.03523    0.03916    0.50004    1.000
    N48      N        0.02324    0.12421    0.61822    1.000
    Si49     Si       0.01611    0.23546    0.60065    1.000
    Si50     Si       0.02835    0.22228    0.52233    1.000
    N51      N        0.03265    0.19227    0.60306    1.000
    N52      N        0.01656    0.24583    0.55728    1.000
    N53      N        0.99538    0.20744    0.49778    1.000
    N54      N        0.04901    0.18592    0.53484    1.000
    Si55     Si       0.00185    0.16299    0.61827    1.000
    Si56     Si       0.00253    0.02509    0.67360    1.000
    Si57     Si       0.01052    0.07940    0.72326    1.000
    N58      N        0.02160    0.03871    0.71026    1.000
    N59      N        0.00054    0.05509    0.64328    1.000
    N60      N        0.03795    0.10408    0.69858    1.000
    N61      N        0.03585    0.16993    0.71660    1.000
    Si62     Si       0.03458    0.14331    0.68337    1.000
    N63      N        0.00129    0.16713    0.66214    1.000
    N64      N        0.03532    0.22856    0.67669    1.000
    Si65     Si       0.00992    0.19753    0.69333    1.000
    N66      N        0.01509    0.08416    0.76716    1.000
    N67      N        0.04015    0.03175    0.81310    1.000
    Si68     Si       0.99875    0.12275    0.78403    1.000
    Si69     Si       0.00280    0.00842    0.82170    1.000
    Si70     Si       0.99556    0.14553    0.86335    1.000
    N71      N        0.03322    0.20899    0.77325    1.000
    N72      N        0.00521    0.24920    0.83211    1.000
    N73      N        0.03706    0.14393    0.78515    1.000
    Si74     Si       0.99110    0.21480    0.76323    1.000
    N75      N        0.98899    0.18820    0.86759    1.000
    Si76     Si       0.03013    0.02821    0.88612    1.000
    N77      N        0.01991    0.02389    0.92715    1.000
    N78      N        0.01602    0.06852    0.87712    1.000
    Si79     Si       0.02036    0.02629    0.97066    1.000
    Si80     Si       0.02855    0.09972    0.96349    1.000
    N81      N        0.04059    0.06276    0.98369    1.000
    N82      N        0.99184    0.09265    0.94392    1.000
    N83      N        0.02053    0.13355    0.98747    1.000
    Si84     Si       0.00628    0.20491    0.90404    1.000
    N85      N        0.03503    0.13407    0.87332    1.000
    Si86     Si       0.01485    0.17685    0.97614    1.000
    N87      N        0.00615    0.24871    0.89835    1.000
    N88      N        0.99133    0.19012    0.94233    1.000
    Si89     Si       0.02841    0.34589    0.01248    1.000
    Si90     Si       0.00499    0.27204    0.01945    1.000
    N91      N        0.03280    0.30414    0.00591    1.000
    Si92     Si       0.03473    0.27409    0.07299    1.000
    N93      N        0.99646    0.35155    0.03945    1.000
    N94      N        0.04209    0.31633    0.08971    1.000
    N95      N        0.99013    0.28080    0.06385    1.000
    N96      N        0.01479    0.41735    0.03487    1.000
    N97      N        0.02656    0.47948    0.05950    1.000
    Si98     Si       0.00292    0.45755    0.02482    1.000
    Si99     Si       0.99104    0.49509    0.07479    1.000
    Si100    Si       0.01640    0.32028    0.12440    1.000
    N101     N        0.02699    0.31811    0.22887    1.000
    Si102    Si       0.00252    0.35933    0.18503    1.000
    N103     N        0.00256    0.28009    0.13653    1.000
    N104     N        0.03084    0.34446    0.15663    1.000
    N105     N        0.02129    0.37840    0.21775    1.000
    Si106    Si       0.98802    0.29839    0.21823    1.000
    N107     N        0.02342    0.49536    0.21358    1.000
    Si108    Si       0.03815    0.41420    0.23612    1.000
    N109     N        0.02147    0.32823    0.29192    1.000
    Si110    Si       0.01935    0.35458    0.25670    1.000
    N111     N        0.01973    0.37229    0.34809    1.000
    Si112    Si       0.01615    0.33326    0.33285    1.000
    N113     N        0.99020    0.31003    0.35693    1.000
    N114     N        0.03831    0.39346    0.27485    1.000
    Si115    Si       0.03568    0.40157    0.31890    1.000
    N116     N        0.01587    0.49369    0.29423    1.000
    N117     N        0.01167    0.49698    0.35891    1.000
    N118     N        0.00029    0.43785    0.24501    1.000
    Si119    Si       0.02248    0.33606    0.45693    1.000
    N120     N        0.03651    0.27379    0.38897    1.000
    N121     N        0.03646    0.29226    0.45856    1.000
    Si122    Si       0.00730    0.30390    0.39634    1.000
    N123     N        0.01617    0.34150    0.41381    1.000
    Si124    Si       0.99959    0.26953    0.45280    1.000
    Si125    Si       0.02523    0.37858    0.39171    1.000
    N126     N        0.99954    0.48926    0.42284    1.000
    N127     N        0.99382    0.48478    0.49186    1.000
    N128     N        0.00123    0.41303    0.39557    1.000
    Si129    Si       0.00936    0.28764    0.56851    1.000
    N130     N        0.00111    0.28218    0.60878    1.000
    Si131    Si       0.01571    0.44901    0.58794    1.000
    N132     N        0.00605    0.46402    0.55018    1.000
    Si133    Si       0.00949    0.44728    0.51012    1.000
    N134     N        0.99697    0.40579    0.58256    1.000
    Si135    Si       0.03863    0.39421    0.57642    1.000
    N136     N        0.04813    0.43169    0.49849    1.000
    Si137    Si       0.99838    0.50404    0.53241    1.000
    Si138    Si       0.03811    0.32615    0.70559    1.000
    N139     N        0.01984    0.28597    0.71246    1.000
    N140     N        0.01125    0.35884    0.70665    1.000
    Si141    Si       0.04511    0.37039    0.65040    1.000
    N142     N        0.02041    0.47438    0.62271    1.000
    Si143    Si       0.01548    0.40070    0.69113    1.000
    Si144    Si       0.04082    0.47133    0.66269    1.000
    N145     N        0.00373    0.38710    0.65092    1.000
    Si146    Si       0.99915    0.46904    0.72178    1.000
    N147     N        0.02223    0.44738    0.69299    1.000
    N148     N        0.01911    0.31190    0.85143    1.000
    Si149    Si       0.00314    0.27736    0.79916    1.000
    Si150    Si       0.02592    0.27020    0.86447    1.000
    N151     N        0.04575    0.27804    0.78211    1.000
    N152     N        0.03280    0.38074    0.84873    1.000
    N153     N        0.01839    0.44690    0.82542    1.000
    Si154    Si       0.01970    0.47454    0.78964    1.000
    N155     N        0.03243    0.39838    0.77823    1.000
    Si156    Si       0.04335    0.41199    0.81766    1.000
    N157     N        0.99625    0.45336    0.76162    1.000
    Si158    Si       0.99341    0.40879    0.76188    1.000
    N159     N        0.02175    0.36882    0.97603    1.000
    Si160    Si       0.99629    0.35401    0.94370    1.000
    N161     N        0.01163    0.37544    0.90897    1.000
    N162     N        0.99283    0.31292    0.93545    1.000
    Si163    Si       0.00082    0.46027    0.96005    1.000
    Si164    Si       0.99539    0.39161    0.87172    1.000
    N165     N        0.02027    0.48049    0.99321    1.000
    N166     N        0.03937    0.49708    0.91225    1.000
    Si167    Si       0.04613    0.39844    0.95467    1.000
    N168     N        0.02807    0.43464    0.93973    1.000
    N169     N        0.02599    0.60307    0.06615    1.000
    Si170    Si       0.02917    0.55966    0.06597    1.000
    Si171    Si       0.00412    0.61684    0.10068    1.000
    N172     N        0.99873    0.53665    0.08427    1.000
    N173     N        0.04521    0.54324    0.02906    1.000
    N174     N        0.03398    0.70869    0.10141    1.000
    Si175    Si       0.99898    0.66676    0.04724    1.000
    N176     N        0.99639    0.64999    0.00794    1.000
    N177     N        0.04320    0.66849    0.04704    1.000
    N178     N        0.02017    0.75000    0.01665    1.000
    Si179    Si       0.99123    0.71917    0.09540    1.000
    N180     N        0.03656    0.52973    0.14240    1.000
    Si181    Si       0.02220    0.60738    0.20142    1.000
    Si182    Si       0.01688    0.52596    0.18266    1.000
    N183     N        0.02375    0.56427    0.20275    1.000
    Si184    Si       0.99709    0.54679    0.12624    1.000
    N185     N        0.03004    0.63847    0.12813    1.000
    Si186    Si       0.02661    0.56479    0.24422    1.000
    Si187    Si       0.99367    0.70938    0.16835    1.000
    N188     N        0.03706    0.71386    0.17186    1.000
    Si189    Si       0.99632    0.68802    0.24761    1.000
    N190     N        0.03138    0.57011    0.32130    1.000
    Si191    Si       0.03542    0.57438    0.36436    1.000
    Si192    Si       0.01800    0.63028    0.32986    1.000
    N193     N        0.02249    0.61518    0.37040    1.000
    Si194    Si       0.99221    0.57058    0.30442    1.000
    N195     N        0.02731    0.60850    0.24703    1.000
    N196     N        0.00526    0.67058    0.33574    1.000
    Si197    Si       0.01424    0.71210    0.34267    1.000
    N198     N        0.02899    0.72986    0.30546    1.000
    N199     N        0.03622    0.67784    0.26075    1.000
    Si200    Si       0.00525    0.75695    0.28121    1.000
    Si201    Si       0.02579    0.51002    0.39592    1.000
    N202     N        0.02278    0.55222    0.40167    1.000
    Si203    Si       0.03485    0.58301    0.43350    1.000
    N204     N        0.99698    0.60423    0.43763    1.000
    N205     N        0.04411    0.56705    0.47167    1.000
    N206     N        0.04044    0.71076    0.37823    1.000
    N207     N        0.00724    0.68879    0.49446    1.000
    N208     N        0.04101    0.73265    0.44712    1.000
    Si209    Si       0.02310    0.70875    0.41572    1.000
    N210     N        0.02683    0.66489    0.42675    1.000
    Si211    Si       0.00224    0.63470    0.40617    1.000
    Si212    Si       0.02018    0.72914    0.48652    1.000
    Si213    Si       0.03086    0.56689    0.51390    1.000
    N214     N        0.03689    0.52534    0.53053    1.000
    N215     N        0.02360    0.55530    0.60828    1.000
    N216     N        0.99022    0.58129    0.51008    1.000
    N217     N        0.00327    0.64466    0.60822    1.000
    Si218    Si       0.01674    0.67500    0.57837    1.000
    N219     N        0.02365    0.71283    0.59934    1.000
    Si220    Si       0.01824    0.75552    0.58407    1.000
    Si221    Si       0.04548    0.67616    0.51105    1.000
    N222     N        0.99861    0.75705    0.54668    1.000
    Si223    Si       0.01524    0.51774    0.63019    1.000
    N224     N        0.02784    0.51413    0.67126    1.000
    Si225    Si       0.03183    0.59837    0.74308    1.000
    N226     N        0.99447    0.61679    0.72745    1.000
    Si227    Si       0.04661    0.53018    0.71117    1.000
    N228     N        0.01472    0.50954    0.73277    1.000
    N229     N        0.02164    0.72160    0.67569    1.000
    N230     N        0.02422    0.65565    0.67650    1.000
    Si231    Si       0.04156    0.74846    0.70424    1.000
    Si232    Si       0.99758    0.68878    0.68678    1.000
    Si233    Si       0.04449    0.71601    0.63935    1.000
    Si234    Si       0.99458    0.64008    0.64993    1.000
    Si235    Si       0.03015    0.54687    0.80365    1.000
    N236     N        0.01730    0.56462    0.84255    1.000
    N237     N        0.01642    0.56857    0.76939    1.000
    N238     N        0.00286    0.51317    0.80227    1.000
    Si239    Si       0.04699    0.59449    0.85405    1.000
    N240     N        0.03621    0.63394    0.83985    1.000
    N241     N        0.99572    0.65540    0.78809    1.000
    Si242    Si       0.02619    0.74609    0.79164    1.000
    Si243    Si       0.03656    0.65145    0.80093    1.000
    N244     N        0.02118    0.71900    0.82562    1.000
    Si245    Si       0.04252    0.72002    0.86426    1.000
    Si246    Si       0.01239    0.65045    0.87196    1.000
    N247     N        0.03004    0.75518    0.74713    1.000
    N248     N        0.99961    0.59579    0.95672    1.000
    Si249    Si       0.00650    0.58941    0.91566    1.000
    N250     N        0.04438    0.60209    0.89770    1.000
    Si251    Si       0.02041    0.62879    0.97880    1.000
    Si252    Si       0.99980    0.51068    0.90938    1.000
    Si253    Si       0.02370    0.52359    0.99706    1.000
    Si254    Si       0.04244    0.68789    0.93130    1.000
    N255     N        0.01299    0.71053    0.95630    1.000
    Si256    Si       0.04012    0.73713    0.98017    1.000
    N257     N        0.03453    0.68476    0.88901    1.000
    N258     N        0.04299    0.64832    0.94737    1.000
    N259     N        0.03088    0.75317    0.88974    1.000
    N260     N        0.01411    0.80153    0.05976    1.000
    N261     N        0.03405    0.85176    0.09371    1.000
    Si262    Si       0.04109    0.83674    0.05234    1.000
    Si263    Si       0.04374    0.77524    0.04301    1.000
    N264     N        0.04631    0.87620    0.03294    1.000
    N265     N        0.98915    0.86955    0.00601    1.000
    Si266    Si       0.00551    0.88357    0.10066    1.000
    Si267    Si       0.03579    0.95723    0.00708    1.000
    N268     N        0.02670    0.92082    0.08588    1.000
    N269     N        0.00907    0.99014    0.10706    1.000
    Si270    Si       0.00175    0.95596    0.07753    1.000
    N271     N        0.00561    0.96693    0.03692    1.000
    N272     N        0.03373    0.80045    0.20948    1.000
    Si273    Si       0.02698    0.87552    0.23165    1.000
    Si274    Si       0.99341    0.81512    0.20836    1.000
    N275     N        0.98903    0.85591    0.22173    1.000
    N276     N        0.03759    0.99748    0.22834    1.000
    Si277    Si       0.99590    0.00523    0.22812    1.000
    N278     N        0.04143    0.89599    0.19730    1.000
    Si279    Si       0.99493    0.98178    0.14878    1.000
    N280     N        0.02359    0.94661    0.15658    1.000
    Si281    Si       0.00743    0.91052    0.17310    1.000
    N282     N        0.99326    0.88338    0.14263    1.000
    N283     N        0.01568    0.85392    0.31988    1.000
    N284     N        0.02955    0.79435    0.27901    1.000
    Si285    Si       0.03535    0.87928    0.34972    1.000
    Si286    Si       0.04235    0.83351    0.29313    1.000
    N287     N        0.99528    0.89357    0.36321    1.000
    N288     N        0.04008    0.96551    0.29836    1.000
    Si289    Si       0.02493    0.92365    0.29843    1.000
    N290     N        0.01649    0.90950    0.25861    1.000
    Si291    Si       0.00571    0.97683    0.32310    1.000
    N292     N        0.01185    0.98248    0.36464    1.000
    N293     N        0.04128    0.79766    0.42991    1.000
    N294     N        0.00257    0.85372    0.42314    1.000
    Si295    Si       0.00431    0.81390    0.43910    1.000
    N296     N        0.00285    0.82019    0.48296    1.000
    Si297    Si       0.04107    0.87605    0.42597    1.000
    Si298    Si       0.04433    0.82778    0.49182    1.000
    N299     N        0.00597    0.00881    0.47902    1.000
    N300     N        0.03114    0.91642    0.43090    1.000
    N301     N        0.02594    0.86923    0.59500    1.000
    Si302    Si       0.01428    0.86079    0.55546    1.000
    N303     N        0.00662    0.77998    0.61943    1.000
    Si304    Si       0.98850    0.87598    0.61886    1.000
    N305     N        0.00065    0.89597    0.53439    1.000
    N306     N        0.00322    0.95994    0.53329    1.000
    N307     N        0.00566    0.97490    0.60219    1.000
    Si308    Si       0.04418    0.97021    0.53041    1.000
    N309     N        0.99648    0.81803    0.73710    1.000
    Si310    Si       0.03572    0.81978    0.71775    1.000
    N311     N        0.03380    0.79000    0.68693    1.000
    Si312    Si       0.04160    0.78947    0.64401    1.000
    N313     N        0.04895    0.85422    0.69468    1.000
    N314     N        0.00383    0.88358    0.72782    1.000
    Si315    Si       0.03412    0.96550    0.69829    1.000
    Si316    Si       0.04244    0.98496    0.62097    1.000
    N317     N        0.02577    0.98855    0.66198    1.000
    Si318    Si       0.02748    0.89086    0.69061    1.000
    N319     N        0.99742    0.96717    0.72239    1.000
    N320     N        0.99950    0.88601    0.65787    1.000
    N321     N        0.04844    0.92834    0.68176    1.000
    N322     N        0.02024    0.86282    0.86030    1.000
    Si323    Si       0.99322    0.77819    0.75139    1.000
    N324     N        0.99203    0.80205    0.85114    1.000
    N325     N        0.99108    0.86720    0.79785    1.000
    Si326    Si       0.02027    0.88180    0.76942    1.000
    N327     N        0.02672    0.92481    0.77168    1.000
    N328     N        0.00897    0.97551    0.79731    1.000
    Si329    Si       0.99514    0.95398    0.76436    1.000
    N330     N        0.00625    0.99883    0.86413    1.000
    Si331    Si       0.02115    0.90547    0.86642    1.000
    Si332    Si       0.04170    0.95005    0.80697    1.000
    N333     N        0.02571    0.81619    0.90972    1.000
    Si334    Si       0.00226    0.78622    0.88893    1.000
    Si335    Si       0.02457    0.81229    0.95354    1.000
    N336     N        0.03620    0.85576    0.96136    1.000
    Si337    Si       0.04778    0.83499    0.87695    1.000
    N338     N        0.04384    0.77492    0.95822    1.000
    Si339    Si       0.02883    0.88337    0.99476    1.000
    Si340    Si       0.02675    0.94242    0.93769    1.000
    N341     N        0.03223    0.90728    0.91009    1.000
    N342     N        0.04423    0.99261    0.98526    1.000
    N343     N        0.02863    0.92405    0.97766    1.000
    N344     N        0.98689    0.95610    0.92382    1.000
    N345     N        0.06893    0.02271    0.08625    1.000
    N346     N        0.07399    0.12050    0.10279    1.000
    Si347    Si       0.05547    0.06523    0.08221    1.000
    Si348    Si       0.07828    0.15259    0.07555    1.000
    Si349    Si       0.07965    0.21735    0.07935    1.000
    N350     N        0.05599    0.18755    0.05723    1.000
    N351     N        0.09755    0.18407    0.10324    1.000
    N352     N        0.09756    0.13896    0.03916    1.000
    N353     N        0.05360    0.24658    0.09931    1.000
    N354     N        0.09620    0.03864    0.19733    1.000
    Si355    Si       0.09430    0.07604    0.17667    1.000
    N356     N        0.05607    0.08794    0.16061    1.000
    N357     N        0.06146    0.15690    0.16218    1.000
    Si358    Si       0.07027    0.20118    0.23365    1.000
    N359     N        0.10289    0.22724    0.22467    1.000
    N360     N        0.08467    0.16082    0.22758    1.000
    Si361    Si       0.09590    0.15278    0.18835    1.000
    Si362    Si       0.08147    0.06081    0.28947    1.000
    N363     N        0.06849    0.08393    0.32346    1.000
    Si364    Si       0.08354    0.12430    0.32262    1.000
    N365     N        0.09950    0.09479    0.26852    1.000
    N366     N        0.05117    0.03088    0.28106    1.000
    N367     N        0.06425    0.03033    0.36469    1.000
    Si368    Si       0.07407    0.18439    0.30929    1.000
    N369     N        0.06331    0.20723    0.27520    1.000
    N370     N        0.09910    0.20155    0.33807    1.000
    N371     N        0.04945    0.15087    0.31900    1.000
    Si372    Si       0.09211    0.05752    0.44660    1.000
    N373     N        0.05735    0.03836    0.46112    1.000
    N374     N        0.09458    0.07358    0.40620    1.000
    Si375    Si       0.10162    0.11577    0.39684    1.000
    Si376    Si       0.10515    0.04201    0.37819    1.000
    N377     N        0.10699    0.09003    0.46827    1.000
    N378     N        0.06697    0.13778    0.40926    1.000
    Si379    Si       0.09853    0.22329    0.37686    1.000
    N380     N        0.06295    0.20950    0.40055    1.000
    Si381    Si       0.06927    0.17665    0.43090    1.000
    N382     N        0.06062    0.07202    0.52088    1.000
    Si383    Si       0.05576    0.04255    0.56341    1.000
    N384     N        0.09830    0.06123    0.57845    1.000
    N385     N        0.05188    0.02449    0.60447    1.000
    Si386    Si       0.09688    0.09250    0.50998    1.000
    Si387    Si       0.08502    0.04893    0.61818    1.000
    N388     N        0.04522    0.01265    0.53346    1.000
    N389     N        0.08968    0.13871    0.50967    1.000
    N390     N        0.08816    0.14600    0.59350    1.000
    Si391    Si       0.06595    0.18080    0.57703    1.000
    N392     N        0.09834    0.21000    0.57265    1.000
    N393     N        0.06265    0.24239    0.50500    1.000
    Si394    Si       0.09585    0.23088    0.53384    1.000
    N395     N        0.05687    0.25377    0.60959    1.000
    Si396    Si       0.04943    0.15589    0.50410    1.000
    Si397    Si       0.06637    0.12487    0.62558    1.000
    N398     N        0.07523    0.08582    0.64137    1.000
    N399     N        0.08654    0.04722    0.69351    1.000
    Si400    Si       0.06193    0.02614    0.72094    1.000
    Si401    Si       0.07780    0.08874    0.68644    1.000
    N402     N        0.09889    0.20921    0.64096    1.000
    Si403    Si       0.10825    0.17152    0.66541    1.000
    N404     N        0.08085    0.24264    0.73499    1.000
    Si405    Si       0.06833    0.23944    0.64856    1.000
    Si406    Si       0.05250    0.25783    0.70583    1.000
    N407     N        0.06908    0.15208    0.65927    1.000
    N408     N        0.07642    0.04593    0.76002    1.000
    Si409    Si       0.07874    0.01757    0.83030    1.000
    N410     N        0.05856    0.09375    0.82184    1.000
    Si411    Si       0.04855    0.09341    0.86408    1.000
    Si412    Si       0.07309    0.13150    0.80598    1.000
    Si413    Si       0.04973    0.06666    0.78904    1.000
    N414     N        0.08102    0.16343    0.83594    1.000
    Si415    Si       0.06391    0.23971    0.77764    1.000
    N416     N        0.09441    0.17333    0.75770    1.000
    N417     N        0.09508    0.22944    0.80806    1.000
    Si418    Si       0.05052    0.17414    0.75618    1.000
    N419     N        0.07227    0.02528    0.87311    1.000
    Si420    Si       0.09920    0.04844    0.89881    1.000
    N421     N        0.08375    0.08856    0.88808    1.000
    N422     N        0.08876    0.03651    0.94012    1.000
    Si423    Si       0.08191    0.06959    0.97110    1.000
    N424     N        0.06637    0.10705    0.94872    1.000
    Si425    Si       0.09688    0.11671    0.92090    1.000
    Si426    Si       0.08655    0.22010    0.97208    1.000
    N427     N        0.05153    0.19812    0.98440    1.000
    N428     N        0.04929    0.19983    0.89449    1.000
    Si429    Si       0.07985    0.23069    0.89446    1.000
    N430     N        0.10186    0.22710    0.93297    1.000
    N431     N        0.09911    0.15633    0.90538    1.000
    Si432    Si       0.06632    0.16379    0.87687    1.000
    N433     N        0.09161    0.25919    0.99394    1.000
    Si434    Si       0.07218    0.34034    0.06960    1.000
    N435     N        0.06315    0.36529    0.03486    1.000
    N436     N        0.09241    0.30958    0.04495    1.000
    Si437    Si       0.07559    0.29611    0.00435    1.000
    N438     N        0.09932    0.36102    0.09262    1.000
    Si439    Si       0.10526    0.35362    0.01855    1.000
    Si440    Si       0.07075    0.47623    0.05860    1.000
    N441     N        0.08322    0.48840    0.10001    1.000
    N442     N        0.08612    0.43734    0.04573    1.000
    Si443    Si       0.05896    0.40864    0.03019    1.000
    N444     N        0.09483    0.50482    0.03841    1.000
    Si445    Si       0.10848    0.39537    0.11842    1.000
    N446     N        0.08354    0.36183    0.20290    1.000
    Si447    Si       0.06948    0.32598    0.22612    1.000
    Si448    Si       0.07309    0.35538    0.16170    1.000
    N449     N        0.09783    0.31884    0.14987    1.000
    N450     N        0.09899    0.29580    0.21228    1.000
    Si451    Si       0.09937    0.27978    0.17237    1.000
    N452     N        0.06384    0.25943    0.16423    1.000
    Si453    Si       0.08924    0.42769    0.17864    1.000
    Si454    Si       0.06223    0.47969    0.22799    1.000
    N455     N        0.06230    0.43836    0.21067    1.000
    N456     N        0.07753    0.39733    0.14884    1.000
    N457     N        0.10067    0.46201    0.15743    1.000
    N458     N        0.09275    0.50682    0.21303    1.000
    N459     N        0.07152    0.27498    0.27303    1.000
    N460     N        0.08209    0.34038    0.26623    1.000
    Si461    Si       0.07851    0.35502    0.35729    1.000
    Si462    Si       0.05765    0.27704    0.35014    1.000
    N463     N        0.06027    0.31816    0.33748    1.000
    Si464    Si       0.06223    0.31117    0.29128    1.000
    Si465    Si       0.09674    0.37428    0.28668    1.000
    N466     N        0.09597    0.26292    0.36139    1.000
    N467     N        0.07994    0.38505    0.32457    1.000
    Si468    Si       0.05481    0.47959    0.30474    1.000
    N469     N        0.07425    0.46853    0.26811    1.000
    Si470    Si       0.09106    0.42650    0.33758    1.000
    N471     N        0.05434    0.44266    0.32616    1.000
    N472     N        0.10635    0.40548    0.25748    1.000
    Si473    Si       0.07111    0.27644    0.48059    1.000
    Si474    Si       0.09264    0.34373    0.47464    1.000
    N475     N        0.05376    0.36316    0.47109    1.000
    N476     N        0.06719    0.38249    0.39005    1.000
    Si477    Si       0.08769    0.41603    0.40877    1.000
    Si478    Si       0.09336    0.50524    0.43062    1.000
    Si479    Si       0.06990    0.45852    0.47186    1.000
    N480     N        0.10485    0.43954    0.37592    1.000
    N481     N        0.06948    0.50552    0.39598    1.000
    N482     N        0.07018    0.50100    0.46689    1.000
    N483     N        0.06369    0.44399    0.43134    1.000
    Si484    Si       0.07006    0.33545    0.54022    1.000
    Si485    Si       0.07886    0.28106    0.58715    1.000
    N486     N        0.06133    0.37605    0.60876    1.000
    N487     N        0.08118    0.31348    0.50399    1.000
    Si488    Si       0.10304    0.37459    0.59433    1.000
    N489     N        0.10378    0.27067    0.55281    1.000
    N490     N        0.04931    0.30828    0.56814    1.000
    N491     N        0.05021    0.37394    0.53905    1.000
    Si492    Si       0.06457    0.39214    0.50174    1.000
    Si493    Si       0.09553    0.45034    0.57312    1.000
    N494     N        0.09798    0.48147    0.54187    1.000
    N495     N        0.05575    0.43477    0.57966    1.000
    N496     N        0.10637    0.29878    0.62036    1.000
    N497     N        0.06975    0.33426    0.73513    1.000
    N498     N        0.07812    0.27230    0.67483    1.000
    Si499    Si       0.09087    0.30905    0.65927    1.000
    N500     N        0.05497    0.33263    0.66521    1.000
    N501     N        0.07993    0.45498    0.66521    1.000
    N502     N        0.10431    0.44564    0.72973    1.000
    N503     N        0.05968    0.39504    0.68322    1.000
    Si504    Si       0.09003    0.42300    0.69350    1.000
    Si505    Si       0.07385    0.30860    0.77516    1.000
    Si506    Si       0.06231    0.36845    0.76191    1.000
    N507     N        0.06247    0.34284    0.79938    1.000
    N508     N        0.10361    0.38398    0.75930    1.000
    Si509    Si       0.04795    0.34166    0.83926    1.000
    N510     N        0.08552    0.41534    0.82173    1.000
    N511     N        0.06300    0.47633    0.78158    1.000
    Si512    Si       0.09039    0.49720    0.81219    1.000
    N513     N        0.09624    0.47821    0.85094    1.000
    Si514    Si       0.10153    0.43595    0.85770    1.000
    Si515    Si       0.09366    0.48244    0.75065    1.000
    N516     N        0.07366    0.34112    0.87515    1.000
    N517     N        0.06878    0.26844    0.87886    1.000
    Si518    Si       0.09597    0.30425    0.88148    1.000
    N519     N        0.09308    0.33050    0.98342    1.000
    N520     N        0.07558    0.37584    0.93143    1.000
    Si521    Si       0.09846    0.34110    0.94288    1.000
    Si522    Si       0.05408    0.37969    0.88930    1.000
    Si523    Si       0.05663    0.45605    0.91448    1.000
    N524     N        0.08914    0.47350    0.94033    1.000
    N525     N        0.06990    0.41373    0.98834    1.000
    N526     N        0.07114    0.42390    0.88929    1.000
    N527     N        0.09172    0.61907    0.06228    1.000
    N528     N        0.06713    0.55266    0.08616    1.000
    Si529    Si       0.08791    0.54782    0.04620    1.000
    Si530    Si       0.09448    0.58956    0.09193    1.000
    N531     N        0.05066    0.60926    0.00180    1.000
    N532     N        0.10400    0.56674    0.00859    1.000
    Si533    Si       0.05389    0.62722    0.04253    1.000
    Si534    Si       0.07290    0.52788    0.12145    1.000
    Si535    Si       0.05991    0.70590    0.06478    1.000
    N536     N        0.09758    0.68770    0.07899    1.000
    N537     N        0.06876    0.74931    0.06557    1.000
    N538     N        0.10533    0.57448    0.20707    1.000
    N539     N        0.05958    0.62452    0.18975    1.000
    Si540    Si       0.09668    0.61695    0.21299    1.000
    Si541    Si       0.10098    0.54275    0.23716    1.000
    N542     N        0.09078    0.59801    0.13367    1.000
    Si543    Si       0.06806    0.63141    0.14796    1.000
    Si544    Si       0.05868    0.70093    0.13706    1.000
    N545     N        0.04915    0.74283    0.24192    1.000
    N546     N        0.09296    0.72785    0.12812    1.000
    N547     N        0.09659    0.70056    0.21512    1.000
    Si548    Si       0.06703    0.73007    0.20203    1.000
    N549     N        0.08743    0.66993    0.14815    1.000
    N550     N        0.06375    0.54709    0.25995    1.000
    Si551    Si       0.07060    0.55377    0.30375    1.000
    Si552    Si       0.08787    0.52782    0.36300    1.000
    Si553    Si       0.09704    0.62658    0.32470    1.000
    N554     N        0.07374    0.51591    0.32266    1.000
    N555     N        0.10343    0.58492    0.30893    1.000
    N556     N        0.05791    0.63517    0.31172    1.000
    N557     N        0.07748    0.56863    0.36891    1.000
    N558     N        0.10661    0.63347    0.36572    1.000
    N559     N        0.09325    0.63542    0.25234    1.000
    Si560    Si       0.05812    0.71551    0.27539    1.000
    N561     N        0.10108    0.72067    0.28042    1.000
    Si562    Si       0.05203    0.63848    0.26642    1.000
    N563     N        0.10389    0.70442    0.34899    1.000
    Si564    Si       0.09445    0.60171    0.39177    1.000
    N565     N        0.06614    0.61170    0.42227    1.000
    Si566    Si       0.07765    0.54033    0.47702    1.000
    N567     N        0.10211    0.54791    0.44126    1.000
    N568     N        0.09135    0.75273    0.40067    1.000
    N569     N        0.09480    0.68395    0.42127    1.000
    Si570    Si       0.08390    0.71056    0.38678    1.000
    N571     N        0.06793    0.65192    0.48256    1.000
    Si572    Si       0.06662    0.65379    0.43819    1.000
    N573     N        0.07637    0.60480    0.59880    1.000
    N574     N        0.08744    0.53676    0.58047    1.000
    Si575    Si       0.07252    0.62576    0.56152    1.000
    Si576    Si       0.07827    0.51861    0.54141    1.000
    Si577    Si       0.05776    0.56757    0.58558    1.000
    N578     N        0.09778    0.54828    0.51328    1.000
    N579     N        0.04943    0.58851    0.54802    1.000
    N580     N        0.10481    0.71967    0.58867    1.000
    Si581    Si       0.06674    0.75638    0.53288    1.000
    N582     N        0.05408    0.72099    0.51397    1.000
    N583     N        0.04767    0.66031    0.55204    1.000
    N584     N        0.08458    0.62090    0.66546    1.000
    N585     N        0.05464    0.57396    0.71392    1.000
    Si586    Si       0.09218    0.58807    0.69454    1.000
    Si587    Si       0.10383    0.62093    0.62616    1.000
    N588     N        0.08326    0.51096    0.72115    1.000
    N589     N        0.06624    0.75329    0.63859    1.000
    N590     N        0.08209    0.66753    0.71597    1.000
    N591     N        0.08227    0.74305    0.71606    1.000
    N592     N        0.07557    0.68444    0.64446    1.000
    Si593    Si       0.06708    0.65774    0.67808    1.000
    N594     N        0.08986    0.59205    0.84638    1.000
    N595     N        0.07092    0.53641    0.81513    1.000
    N596     N        0.05496    0.62670    0.76584    1.000
    Si597    Si       0.10700    0.56055    0.82230    1.000
    N598     N        0.08180    0.73158    0.85369    1.000
    Si599    Si       0.08161    0.65982    0.75768    1.000
    N600     N        0.06915    0.68170    0.79430    1.000
    Si601    Si       0.08762    0.71537    0.81194    1.000
    N602     N        0.07027    0.75105    0.79269    1.000
    Si603    Si       0.07051    0.62239    0.92579    1.000
    Si604    Si       0.06912    0.57433    0.98575    1.000
    N605     N        0.08935    0.59022    0.94750    1.000
    Si606    Si       0.07184    0.51374    0.93581    1.000
    N607     N        0.09977    0.53422    0.90837    1.000
    N608     N        0.05221    0.53747    0.96695    1.000
    N609     N        0.07361    0.71908    0.93315    1.000
    Si610    Si       0.10332    0.71891    0.96437    1.000
    N611     N        0.10059    0.64437    0.90322    1.000
    N612     N        0.07454    0.71610    0.99814    1.000
    N613     N        0.07123    0.81145    0.03340    1.000
    Si614    Si       0.08617    0.76280    0.10356    1.000
    Si615    Si       0.06331    0.83225    0.11925    1.000
    N616     N        0.07112    0.94367    0.02889    1.000
    Si617    Si       0.05935    0.90993    0.05917    1.000
    N618     N        0.09958    0.90187    0.07553    1.000
    Si619    Si       0.10880    0.88771    0.11500    1.000
    N620     N        0.06074    0.79030    0.12390    1.000
    Si621    Si       0.07336    0.87418    0.18013    1.000
    Si622    Si       0.05627    0.79653    0.17021    1.000
    N623     N        0.05955    0.83925    0.16119    1.000
    N624     N        0.08287    0.76594    0.18410    1.000
    Si625    Si       0.05536    0.78530    0.24442    1.000
    N626     N        0.10485    0.86145    0.20846    1.000
    Si627    Si       0.05135    0.99779    0.11542    1.000
    N628     N        0.08242    0.96602    0.19121    1.000
    Si629    Si       0.06555    0.00688    0.19431    1.000
    Si630    Si       0.06623    0.94344    0.15772    1.000
    N631     N        0.08308    0.96776    0.12336    1.000
    N632     N        0.08051    0.90307    0.14634    1.000
    N633     N        0.07918    0.84213    0.31575    1.000
    N634     N        0.05333    0.85144    0.25569    1.000
    N635     N        0.09284    0.79931    0.25728    1.000
    Si636    Si       0.09555    0.84516    0.25016    1.000
    Si637    Si       0.09733    0.88182    0.31591    1.000
    N638     N        0.09567    0.96999    0.27602    1.000
    N639     N        0.08223    0.96375    0.35391    1.000
    Si640    Si       0.08116    0.94750    0.31370    1.000
    Si641    Si       0.05704    0.99047    0.26681    1.000
    N642     N        0.05891    0.90497    0.31903    1.000
    Si643    Si       0.06810    0.76575    0.43531    1.000
    N644     N        0.05788    0.87366    0.38696    1.000
    N645     N        0.05764    0.85859    0.46216    1.000
    Si646    Si       0.09824    0.85955    0.38836    1.000
    Si647    Si       0.09570    0.88088    0.46476    1.000
    N648     N        0.05445    0.98068    0.41919    1.000
    N649     N        0.05838    0.95820    0.48940    1.000
    N650     N        0.09633    0.92376    0.45395    1.000
    Si651    Si       0.05944    0.94704    0.44628    1.000
    Si652    Si       0.05430    0.98964    0.37655    1.000
    Si653    Si       0.06549    0.85956    0.60820    1.000
    Si654    Si       0.08983    0.85505    0.53508    1.000
    N655     N        0.09435    0.85794    0.57655    1.000
    N656     N        0.05939    0.76830    0.57541    1.000
    N657     N        0.06334    0.79095    0.50524    1.000
    Si658    Si       0.08961    0.75822    0.60265    1.000
    N659     N        0.04691    0.84768    0.53041    1.000
    N660     N        0.09420    0.88991    0.50746    1.000
    N661     N        0.07515    0.94588    0.54913    1.000
    Si662    Si       0.09032    0.93351    0.51004    1.000
    Si663    Si       0.09985    0.95174    0.58379    1.000
    N664     N        0.07381    0.95482    0.62039    1.000
    Si665    Si       0.08101    0.84464    0.66703    1.000
    N666     N        0.06401    0.82340    0.63272    1.000
    N667     N        0.06867    0.80805    0.74239    1.000
    N668     N        0.08576    0.88153    0.63916    1.000
    Si669    Si       0.07971    0.92420    0.65323    1.000
    N670     N        0.06847    0.98373    0.72015    1.000
    N671     N        0.06713    0.80687    0.85040    1.000
    Si672    Si       0.08831    0.84165    0.76110    1.000
    N673     N        0.05893    0.86557    0.78088    1.000
    Si674    Si       0.09246    0.77260    0.86645    1.000
    Si675    Si       0.07775    0.76738    0.75193    1.000
    N676     N        0.10045    0.86561    0.83640    1.000
    Si677    Si       0.10317    0.82402    0.83115    1.000
    Si678    Si       0.07748    0.89229    0.81125    1.000
    N679     N        0.07556    0.97596    0.81763    1.000
    N680     N        0.10012    0.91993    0.78926    1.000
    N681     N        0.04930    0.91643    0.83391    1.000
    N682     N        0.07998    0.85629    0.89675    1.000
    N683     N        0.09618    0.77792    0.90959    1.000
    Si684    Si       0.05511    0.87513    0.92786    1.000
    Si685    Si       0.05986    0.75777    0.92092    1.000
    N686     N        0.10378    0.82697    0.96546    1.000
    N687     N        0.06567    0.96228    0.93320    1.000
    N688     N        0.08767    0.89557    0.95060    1.000
    Si689    Si       0.07836    0.99737    0.95556    1.000
    Si690    Si       0.09857    0.93230    0.92784    1.000
    N691     N        0.13693    0.01561    0.10817    1.000
    Si692    Si       0.11333    0.09802    0.03868    1.000
    Si693    Si       0.11200    0.09902    0.10516    1.000
    N694     N        0.15644    0.10334    0.04418    1.000
    N695     N        0.10930    0.08419    0.99966    1.000
    Si696    Si       0.11034    0.02828    0.07517    1.000
    N697     N        0.10284    0.07264    0.07135    1.000
    N698     N        0.14045    0.13199    0.10566    1.000
    Si699    Si       0.12853    0.24155    0.01209    1.000
    Si700    Si       0.12468    0.16590    0.01634    1.000
    Si701    Si       0.15150    0.21087    0.07251    1.000
    N702     N        0.15382    0.17307    0.04972    1.000
    N703     N        0.11467    0.22777    0.05688    1.000
    N704     N        0.11791    0.20225    0.99558    1.000
    N705     N        0.16305    0.19948    0.11415    1.000
    N706     N        0.11582    0.07219    0.13871    1.000
    Si707    Si       0.13730    0.03185    0.21055    1.000
    Si708    Si       0.14956    0.04559    0.13843    1.000
    N709     N        0.14766    0.07122    0.22876    1.000
    Si710    Si       0.14994    0.10994    0.21096    1.000
    N711     N        0.11287    0.11383    0.18958    1.000
    N712     N        0.16232    0.02925    0.17616    1.000
    Si713    Si       0.13237    0.17145    0.12786    1.000
    N714     N        0.13451    0.25353    0.17228    1.000
    N715     N        0.12574    0.17878    0.17043    1.000
    Si716    Si       0.13390    0.21648    0.19463    1.000
    N717     N        0.14659    0.13996    0.24240    1.000
    Si718    Si       0.14994    0.09937    0.34529    1.000
    N719     N        0.13450    0.05875    0.35094    1.000
    Si720    Si       0.13732    0.07704    0.27038    1.000
    N721     N        0.12163    0.03824    0.28459    1.000
    N722     N        0.11295    0.11959    0.35481    1.000
    Si723    Si       0.15256    0.03688    0.31876    1.000
    Si724    Si       0.13512    0.17843    0.31997    1.000
    N725     N        0.15698    0.17489    0.35789    1.000
    N726     N        0.15876    0.23874    0.34602    1.000
    Si727    Si       0.10612    0.13732    0.25701    1.000
    N728     N        0.10647    0.15326    0.29601    1.000
    N729     N        0.12147    0.00616    0.39330    1.000
    Si730    Si       0.14541    0.10701    0.45643    1.000
    N731     N        0.12371    0.02867    0.46027    1.000
    Si732    Si       0.15051    0.04656    0.48963    1.000
    N733     N        0.13863    0.12631    0.41753    1.000
    Si734    Si       0.11875    0.16616    0.48952    1.000
    N735     N        0.15543    0.14109    0.48237    1.000
    Si736    Si       0.12649    0.22384    0.44812    1.000
    N737     N        0.13176    0.22213    0.40422    1.000
    N738     N        0.10635    0.18491    0.45213    1.000
    N739     N        0.13467    0.07161    0.52226    1.000
    Si740    Si       0.13828    0.06856    0.56620    1.000
    N741     N        0.15030    0.10830    0.58195    1.000
    Si742    Si       0.14536    0.00909    0.60772    1.000
    N743     N        0.16712    0.03949    0.58214    1.000
    Si744    Si       0.12918    0.13851    0.60264    1.000
    N745     N        0.12361    0.20415    0.51106    1.000
    Si746    Si       0.12430    0.21499    0.60672    1.000
    N747     N        0.14856    0.17847    0.60442    1.000
    N748     N        0.15248    0.24843    0.60434    1.000
    Si749    Si       0.16420    0.21928    0.50823    1.000
    N750     N        0.11754    0.02774    0.63440    1.000
    N751     N        0.15245    0.06599    0.68332    1.000
    Si752    Si       0.12432    0.03469    0.67628    1.000
    Si753    Si       0.14536    0.11109    0.68135    1.000
    N754     N        0.10779    0.11300    0.70716    1.000
    Si755    Si       0.12072    0.22692    0.72294    1.000
    N756     N        0.12778    0.18827    0.70045    1.000
    N757     N        0.13080    0.13502    0.64658    1.000
    Si758    Si       0.11306    0.13419    0.74365    1.000
    Si759    Si       0.14624    0.05684    0.84146    1.000
    N760     N        0.15102    0.09926    0.83541    1.000
    Si761    Si       0.11656    0.03097    0.77144    1.000
    Si762    Si       0.15240    0.11509    0.79330    1.000
    N763     N        0.15544    0.04268    0.75199    1.000
    N764     N        0.10973    0.11421    0.78428    1.000
    N765     N        0.11443    0.03886    0.81786    1.000
    N766     N        0.14100    0.22661    0.76177    1.000
    N767     N        0.14647    0.18230    0.81601    1.000
    Si768    Si       0.13154    0.18596    0.77696    1.000
    Si769    Si       0.13057    0.25266    0.79567    1.000
    N770     N        0.15887    0.25149    0.82896    1.000
    Si771    Si       0.15638    0.23310    0.86801    1.000
    N772     N        0.15155    0.15237    0.75378    1.000
    Si773    Si       0.10772    0.19714    0.83351    1.000
    Si774    Si       0.14643    0.09867    0.98045    1.000
    N775     N        0.14218    0.05336    0.88700    1.000
    N776     N        0.13260    0.09782    0.93715    1.000
    Si777    Si       0.16108    0.01534    0.89965    1.000
    N778     N        0.16681    0.00998    0.94212    1.000
    Si779    Si       0.16284    0.08616    0.90835    1.000
    N780     N        0.11575    0.21264    0.87390    1.000
    N781     N        0.15998    0.25420    0.90510    1.000
    N782     N        0.15372    0.25591    0.97275    1.000
    N783     N        0.14623    0.14141    0.98722    1.000
    Si784    Si       0.12402    0.19153    0.91535    1.000
    N785     N        0.16373    0.18580    0.93474    1.000
    N786     N        0.14476    0.30773    0.09544    1.000
    Si787    Si       0.13516    0.30452    0.05266    1.000
    N788     N        0.14610    0.33915    0.02951    1.000
    N789     N        0.15290    0.26979    0.03402    1.000
    Si790    Si       0.16384    0.37691    0.01703    1.000
    N791     N        0.12264    0.42872    0.09850    1.000
    Si792    Si       0.13340    0.49007    0.02412    1.000
    N793     N        0.14866    0.46800    0.05752    1.000
    Si794    Si       0.13462    0.42622    0.05614    1.000
    Si795    Si       0.11562    0.46750    0.11800    1.000
    N796     N        0.12359    0.39347    0.01110    1.000
    N797     N        0.15600    0.48803    0.11999    1.000
    Si798    Si       0.12534    0.33700    0.12144    1.000
    Si799    Si       0.14145    0.31266    0.21925    1.000
    N800     N        0.14100    0.37396    0.13831    1.000
    N801     N        0.14494    0.35347    0.23152    1.000
    Si802    Si       0.11668    0.38485    0.22202    1.000
    Si803    Si       0.11452    0.49852    0.17577    1.000
    N804     N        0.15680    0.48805    0.18792    1.000
    N805     N        0.13054    0.41177    0.19123    1.000
    Si806    Si       0.16352    0.40187    0.16508    1.000
    N807     N        0.13909    0.36472    0.29909    1.000
    Si808    Si       0.13699    0.27579    0.35665    1.000
    Si809    Si       0.14942    0.34305    0.33582    1.000
    N810     N        0.14983    0.30043    0.32349    1.000
    N811     N        0.14316    0.28259    0.25285    1.000
    N812     N        0.12079    0.34692    0.36834    1.000
    Si813    Si       0.10398    0.26609    0.24498    1.000
    N814     N        0.12510    0.43986    0.31213    1.000
    N815     N        0.14336    0.46897    0.25170    1.000
    Si816    Si       0.11288    0.44515    0.27174    1.000
    Si817    Si       0.15947    0.50625    0.27106    1.000
    N818     N        0.15130    0.28802    0.39664    1.000
    Si819    Si       0.12974    0.35707    0.41114    1.000
    Si820    Si       0.13204    0.29273    0.43736    1.000
    N821     N        0.11529    0.33138    0.44040    1.000
    N822     N        0.10507    0.26294    0.45525    1.000
    Si823    Si       0.16592    0.50603    0.44560    1.000
    N824     N        0.15157    0.50488    0.48716    1.000
    N825     N        0.11145    0.44793    0.48426    1.000
    N826     N        0.13269    0.48868    0.42212    1.000
    Si827    Si       0.13015    0.47549    0.38169    1.000
    Si828    Si       0.12789    0.41001    0.47021    1.000
    N829     N        0.11829    0.39603    0.43103    1.000
    Si830    Si       0.14008    0.28903    0.53900    1.000
    Si831    Si       0.13740    0.35837    0.52926    1.000
    Si832    Si       0.14910    0.28956    0.61543    1.000
    N833     N        0.15009    0.32126    0.51210    1.000
    N834     N        0.10708    0.34800    0.56061    1.000
    N835     N        0.10826    0.37863    0.49935    1.000
    N836     N        0.16372    0.30672    0.57443    1.000
    Si837    Si       0.13010    0.47489    0.51092    1.000
    N838     N        0.11905    0.41476    0.58328    1.000
    Si839    Si       0.14863    0.40859    0.61450    1.000
    N840     N        0.10948    0.47763    0.60609    1.000
    N841     N        0.16683    0.45720    0.53103    1.000
    N842     N        0.13391    0.36733    0.62350    1.000
    N843     N        0.14305    0.33155    0.74162    1.000
    Si844    Si       0.15027    0.30097    0.71265    1.000
    Si845    Si       0.15122    0.34584    0.65772    1.000
    N846     N        0.12308    0.32594    0.68354    1.000
    Si847    Si       0.10913    0.35413    0.71971    1.000
    N848     N        0.14463    0.25736    0.70140    1.000
    N849     N        0.13764    0.49381    0.67230    1.000
    N850     N        0.12305    0.39355    0.70123    1.000
    Si851    Si       0.11776    0.46526    0.64727    1.000
    N852     N        0.14486    0.43110    0.64899    1.000
    Si853    Si       0.13230    0.41585    0.74456    1.000
    N854     N        0.13247    0.35515    0.81325    1.000
    Si855    Si       0.13956    0.32606    0.78210    1.000
    N856     N        0.11345    0.29121    0.78598    1.000
    N857     N        0.13765    0.31337    0.86713    1.000
    Si858    Si       0.16187    0.33566    0.83806    1.000
    N859     N        0.14591    0.41864    0.78763    1.000
    Si860    Si       0.11479    0.39164    0.80163    1.000
    N861     N        0.11933    0.50333    0.77863    1.000
    N862     N        0.13623    0.36202    0.92508    1.000
    Si863    Si       0.15048    0.32701    0.90755    1.000
    N864     N        0.11345    0.30191    0.92407    1.000
    Si865    Si       0.13049    0.26296    0.93537    1.000
    Si866    Si       0.16389    0.39252    0.94632    1.000
    N867     N        0.13172    0.42159    0.94496    1.000
    N868     N        0.13156    0.41026    0.87559    1.000
    Si869    Si       0.13334    0.46790    0.94520    1.000
    Si870    Si       0.10995    0.39795    0.91234    1.000
    N871     N        0.12918    0.46122    0.99327    1.000
    Si872    Si       0.11101    0.42391    0.98293    1.000
    N873     N        0.14109    0.47914    0.90167    1.000
    Si874    Si       0.11401    0.50626    0.87844    1.000
    N875     N        0.12385    0.56003    0.07752    1.000
    N876     N        0.15819    0.52411    0.01444    1.000
    N877     N        0.13825    0.64821    0.10597    1.000
    N878     N        0.14354    0.66677    0.03329    1.000
    Si879    Si       0.11928    0.65095    0.06553    1.000
    N880     N        0.15141    0.74171    0.03818    1.000
    N881     N        0.15616    0.71972    0.10189    1.000
    Si882    Si       0.11960    0.69071    0.11886    1.000
    Si883    Si       0.15398    0.75521    0.07713    1.000
    N884     N        0.10547    0.53296    0.15149    1.000
    N885     N        0.15312    0.59070    0.16272    1.000
    Si886    Si       0.11489    0.57388    0.16476    1.000
    Si887    Si       0.16155    0.61870    0.12754    1.000
    Si888    Si       0.12572    0.71622    0.24431    1.000
    N889     N        0.13337    0.75423    0.22438    1.000
    N890     N        0.14439    0.69532    0.16012    1.000
    N891     N        0.12998    0.64074    0.19763    1.000
    Si892    Si       0.11421    0.67717    0.18250    1.000
    Si893    Si       0.14325    0.57481    0.29068    1.000
    N894     N        0.13127    0.53797    0.26799    1.000
    N895     N        0.15413    0.60715    0.26138    1.000
    Si896    Si       0.16675    0.52027    0.34213    1.000
    N897     N        0.12726    0.51291    0.35986    1.000
    N898     N        0.15627    0.72145    0.31560    1.000
    Si899    Si       0.13442    0.64589    0.26337    1.000
    N900     N        0.12746    0.64936    0.30603    1.000
    Si901    Si       0.13995    0.68284    0.33107    1.000
    Si902    Si       0.11301    0.73600    0.31907    1.000
    N903     N        0.15560    0.68358    0.25229    1.000
    N904     N        0.13610    0.59727    0.40581    1.000
    Si905    Si       0.13574    0.57600    0.44189    1.000
    N906     N        0.12403    0.60056    0.47705    1.000
    N907     N        0.15755    0.65714    0.42242    1.000
    N908     N        0.13546    0.67110    0.48421    1.000
    Si909    Si       0.10833    0.63740    0.49113    1.000
    Si910    Si       0.14448    0.63798    0.38659    1.000
    N911     N        0.15480    0.72506    0.44597    1.000
    Si912    Si       0.13446    0.68823    0.44374    1.000
    Si913    Si       0.12194    0.58312    0.51777    1.000
    Si914    Si       0.12437    0.51435    0.58721    1.000
    N915     N        0.11074    0.62299    0.53583    1.000
    N916     N        0.15167    0.52864    0.61740    1.000
    N917     N        0.15252    0.51476    0.55325    1.000
    N918     N        0.16431    0.57564    0.52386    1.000
    Si919    Si       0.14050    0.64281    0.56391    1.000
    Si920    Si       0.13343    0.72494    0.55583    1.000
    N921     N        0.14464    0.68254    0.54741    1.000
    N922     N        0.11520    0.65330    0.59855    1.000
    N923     N        0.11077    0.75664    0.53009    1.000
    Si924    Si       0.11144    0.69083    0.62175    1.000
    N925     N        0.14155    0.60118    0.63001    1.000
    N926     N        0.12940    0.59471    0.71927    1.000
    Si927    Si       0.13747    0.56105    0.64242    1.000
    N928     N        0.14902    0.53146    0.72729    1.000
    Si929    Si       0.11755    0.52071    0.69857    1.000
    N930     N        0.10596    0.55346    0.67138    1.000
    Si931    Si       0.16464    0.56830    0.71116    1.000
    N932     N        0.14275    0.71044    0.64522    1.000
    Si933    Si       0.12813    0.73926    0.72060    1.000
    Si934    Si       0.14839    0.75378    0.64637    1.000
    N935     N        0.15412    0.70995    0.73950    1.000
    N936     N        0.13183    0.53188    0.84743    1.000
    N937     N        0.12797    0.57191    0.78456    1.000
    Si938    Si       0.13636    0.60763    0.75996    1.000
    Si939    Si       0.14702    0.53493    0.76881    1.000
    Si940    Si       0.11405    0.61904    0.87181    1.000
    Si941    Si       0.14677    0.68626    0.84849    1.000
    N942     N        0.12744    0.69943    0.81042    1.000
    Si943    Si       0.14597    0.68425    0.77478    1.000
    N944     N        0.14552    0.64332    0.85427    1.000
    N945     N        0.12323    0.64844    0.76528    1.000
    N946     N        0.14032    0.59221    0.89374    1.000
    Si947    Si       0.12083    0.57021    0.92537    1.000
    N948     N        0.14967    0.56253    0.95810    1.000
    Si949    Si       0.14587    0.56321    0.00098    1.000
    N950     N        0.12660    0.75671    0.96799    1.000
    Si951    Si       0.14981    0.66546    0.98921    1.000
    Si952    Si       0.13242    0.67042    0.91671    1.000
    N953     N        0.12390    0.68221    0.95742    1.000
    N954     N        0.14110    0.70279    0.88879    1.000
    N955     N        0.12651    0.77959    0.09949    1.000
    N956     N        0.14679    0.80574    0.01268    1.000
    N957     N        0.11639    0.86843    0.01123    1.000
    Si958    Si       0.15339    0.76524    0.00317    1.000
    N959     N        0.16323    0.88012    0.06031    1.000
    N960     N        0.10537    0.84399    0.11278    1.000
    Si961    Si       0.10778    0.82558    0.01095    1.000
    Si962    Si       0.16018    0.99180    0.07388    1.000
    N963     N        0.15454    0.95492    0.10212    1.000
    Si964    Si       0.12728    0.89686    0.04255    1.000
    N965     N        0.13979    0.93408    0.02511    1.000
    N966     N        0.12318    0.99647    0.04972    1.000
    Si967    Si       0.10988    0.96472    0.02085    1.000
    Si968    Si       0.13753    0.81271    0.12544    1.000
    Si969    Si       0.12948    0.77079    0.18456    1.000
    Si970    Si       0.14388    0.84069    0.20248    1.000
    N971     N        0.13428    0.81296    0.16906    1.000
    N972     N        0.14515    0.82691    0.24226    1.000
    N973     N        0.13838    0.99412    0.23108    1.000
    N974     N        0.13138    0.92760    0.22900    1.000
    N975     N        0.14998    0.89202    0.12827    1.000
    Si976    Si       0.12267    0.95860    0.20315    1.000
    Si977    Si       0.12658    0.97708    0.12666    1.000
    N978     N        0.14162    0.95519    0.16401    1.000
    N979     N        0.14806    0.83140    0.31366    1.000
    N980     N        0.11681    0.87515    0.27488    1.000
    Si981    Si       0.11172    0.81718    0.33249    1.000
    Si982    Si       0.13409    0.78701    0.25363    1.000
    N983     N        0.11930    0.77445    0.33677    1.000
    N984     N        0.11712    0.87927    0.35437    1.000
    Si985    Si       0.16079    0.85443    0.27513    1.000
    Si986    Si       0.13364    0.99137    0.27957    1.000
    N987     N        0.14162    0.99373    0.32598    1.000
    N988     N        0.11860    0.92514    0.31353    1.000
    Si989    Si       0.13358    0.92029    0.27163    1.000
    Si990    Si       0.14399    0.91227    0.34690    1.000
    Si991    Si       0.12117    0.97708    0.36063    1.000
    N992     N        0.16420    0.95890    0.27778    1.000
    Si993    Si       0.11763    0.77900    0.37912    1.000
    N994     N        0.11724    0.86526    0.42850    1.000
    N995     N        0.15584    0.78238    0.40178    1.000
    Si996    Si       0.14451    0.76694    0.44098    1.000
    Si997    Si       0.16142    0.87049    0.43223    1.000
    N998     N        0.10518    0.77647    0.45836    1.000
    N999     N        0.10178    0.81928    0.37539    1.000
    Si1000   Si       0.13656    0.93633    0.46512    1.000
    Si1001   Si       0.14860    0.00557    0.42872    1.000
    N1002    N        0.16333    0.90179    0.46623    1.000
    N1003    N        0.14894    0.94764    0.37102    1.000
    N1004    N        0.15428    0.96263    0.43606    1.000
    N1005    N        0.11775    0.82713    0.51857    1.000
    Si1006   Si       0.15665    0.84080    0.53390    1.000
    N1007    N        0.12656    0.77535    0.61408    1.000
    Si1008   Si       0.16550    0.78423    0.58987    1.000
    N1009    N        0.15748    0.88381    0.53670    1.000
    Si1010   Si       0.10727    0.78943    0.50008    1.000
    Si1011   Si       0.15150    0.98001    0.53538    1.000
    N1012    N        0.13274    0.92030    0.59242    1.000
    N1013    N        0.12837    0.98508    0.57360    1.000
    N1014    N        0.12879    0.95444    0.50464    1.000
    Si1015   Si       0.16592    0.91335    0.56569    1.000
    N1016    N        0.11113    0.87104    0.74035    1.000
    N1017    N        0.15784    0.86356    0.63044    1.000
    Si1018   Si       0.14622    0.80347    0.69926    1.000
    Si1019   Si       0.15417    0.85908    0.73406    1.000
    N1020    N        0.11636    0.82671    0.68111    1.000
    N1021    N        0.16427    0.81704    0.73853    1.000
    N1022    N        0.15992    0.88181    0.69696    1.000
    N1023    N        0.14627    0.76176    0.68871    1.000
    N1024    N        0.13556    0.99661    0.69552    1.000
    Si1025   Si       0.15021    0.92388    0.69395    1.000
    N1026    N        0.12515    0.92540    0.65987    1.000
    N1027    N        0.12629    0.93692    0.72787    1.000
    Si1028   Si       0.11126    0.97656    0.72586    1.000
    Si1029   Si       0.12780    0.89363    0.62698    1.000
    Si1030   Si       0.14654    0.79747    0.77377    1.000
    N1031    N        0.12821    0.79258    0.84821    1.000
    N1032    N        0.11528    0.82436    0.79004    1.000
    N1033    N        0.12306    0.76741    0.75500    1.000
    N1034    N        0.11960    0.98782    0.76940    1.000
    N1035    N        0.14658    0.94450    0.83068    1.000
    Si1036   Si       0.12585    0.90790    0.75776    1.000
    Si1037   Si       0.11430    0.95940    0.80181    1.000
    N1038    N        0.15292    0.87224    0.88368    1.000
    Si1039   Si       0.12015    0.79268    0.94465    1.000
    Si1040   Si       0.11616    0.86893    0.96766    1.000
    N1041    N        0.15537    0.87458    0.94834    1.000
    N1042    N        0.16223    0.80248    0.93537    1.000
    Si1043   Si       0.11102    0.87839    0.87688    1.000
    Si1044   Si       0.13795    0.94499    0.87297    1.000
    N1045    N        0.13953    0.93896    0.94267    1.000
    N1046    N        0.13085    0.98592    0.88645    1.000
    N1047    N        0.11156    0.98542    0.98144    1.000
    Si1048   Si       0.14968    0.97568    0.96399    1.000
    N1049    N        0.10510    0.91963    0.88694    1.000
    Si1050   Si       0.18295    0.07111    0.02875    1.000
    N1051    N        0.18018    0.03981    0.06000    1.000
    Si1052   Si       0.20606    0.04580    0.09339    1.000
    N1053    N        0.20850    0.14029    0.07730    1.000
    N1054    N        0.19182    0.22944    0.06835    1.000
    Si1055   Si       0.19879    0.22413    0.11280    1.000
    Si1056   Si       0.16663    0.13910    0.06946    1.000
    N1057    N        0.18533    0.06547    0.12492    1.000
    N1058    N        0.18497    0.11435    0.18783    1.000
    Si1059   Si       0.20254    0.01892    0.18714    1.000
    Si1060   Si       0.20358    0.08757    0.15765    1.000
    N1061    N        0.20282    0.00996    0.22883    1.000
    Si1062   Si       0.21464    0.14241    0.20100    1.000
    N1063    N        0.21198    0.16073    0.24137    1.000
    Si1064   Si       0.21363    0.21218    0.20716    1.000
    N1065    N        0.20930    0.25049    0.18872    1.000
    N1066    N        0.16917    0.20652    0.21670    1.000
    Si1067   Si       0.20888    0.09587    0.30120    1.000
    N1068    N        0.18760    0.02063    0.29515    1.000
    Si1069   Si       0.21625    0.03321    0.26506    1.000
    N1070    N        0.18148    0.11554    0.36890    1.000
    N1071    N        0.16565    0.08702    0.30451    1.000
    N1072    N        0.22312    0.07681    0.26413    1.000
    N1073    N        0.21866    0.13808    0.30663    1.000
    Si1074   Si       0.18399    0.22197    0.31485    1.000
    Si1075   Si       0.17048    0.17596    0.24993    1.000
    N1076    N        0.21598    0.20856    0.34044    1.000
    N1077    N        0.19760    0.25433    0.28729    1.000
    N1078    N        0.16566    0.19093    0.29095    1.000
    Si1079   Si       0.20737    0.05653    0.43988    1.000
    N1080    N        0.18928    0.02229    0.42318    1.000
    N1081    N        0.17324    0.07350    0.46262    1.000
    N1082    N        0.20180    0.24394    0.40097    1.000
    Si1083   Si       0.16855    0.21162    0.37952    1.000
    N1084    N        0.16653    0.22554    0.46467    1.000
    N1085    N        0.18756    0.18082    0.41242    1.000
    Si1086   Si       0.19994    0.21485    0.43814    1.000
    Si1087   Si       0.16497    0.14916    0.39261    1.000
    Si1088   Si       0.21058    0.03871    0.57511    1.000
    Si1089   Si       0.19509    0.11074    0.57911    1.000
    N1090    N        0.20307    0.12192    0.53891    1.000
    Si1091   Si       0.21377    0.01310    0.50424    1.000
    N1092    N        0.16991    0.01302    0.51056    1.000
    N1093    N        0.22375    0.07979    0.58656    1.000
    Si1094   Si       0.19268    0.14651    0.50423    1.000
    N1095    N        0.20670    0.14125    0.60402    1.000
    N1096    N        0.19168    0.18764    0.51776    1.000
    N1097    N        0.20161    0.20935    0.57972    1.000
    Si1098   Si       0.18976    0.18166    0.60855    1.000
    Si1099   Si       0.18213    0.24845    0.57291    1.000
    N1100    N        0.16615    0.25318    0.53339    1.000
    Si1101   Si       0.21901    0.12047    0.69705    1.000
    Si1102   Si       0.17897    0.05124    0.71508    1.000
    N1103    N        0.20101    0.01872    0.69509    1.000
    N1104    N        0.20533    0.08593    0.71946    1.000
    Si1105   Si       0.16457    0.17096    0.71573    1.000
    Si1106   Si       0.18816    0.24827    0.70616    1.000
    N1107    N        0.21282    0.18755    0.64562    1.000
    N1108    N        0.17792    0.13635    0.69320    1.000
    N1109    N        0.19285    0.20484    0.71116    1.000
    N1110    N        0.20975    0.25914    0.66916    1.000
    Si1111   Si       0.18880    0.11146    0.85154    1.000
    Si1112   Si       0.18665    0.04830    0.78146    1.000
    N1113    N        0.17875    0.03333    0.82322    1.000
    N1114    N        0.18837    0.09299    0.78342    1.000
    Si1115   Si       0.21388    0.03207    0.84853    1.000
    N1116    N        0.20960    0.07293    0.86065    1.000
    N1117    N        0.22723    0.04188    0.76506    1.000
    N1118    N        0.21450    0.21233    0.80897    1.000
    Si1119   Si       0.18795    0.18434    0.83015    1.000
    N1120    N        0.20783    0.14533    0.82930    1.000
    Si1121   Si       0.20289    0.25422    0.82279    1.000
    N1122    N        0.18760    0.20042    0.87101    1.000
    N1123    N        0.21302    0.26328    0.86455    1.000
    Si1124   Si       0.19324    0.04036    0.96011    1.000
    N1125    N        0.19683    0.06641    0.92545    1.000
    N1126    N        0.18310    0.12321    0.89279    1.000
    N1127    N        0.16975    0.06322    0.98821    1.000
    N1128    N        0.20198    0.00875    0.88538    1.000
    N1129    N        0.19867    0.19984    0.99209    1.000
    N1130    N        0.20588    0.13344    0.96197    1.000
    Si1131   Si       0.21342    0.13751    0.92024    1.000
    Si1132   Si       0.19401    0.23941    0.97467    1.000
    Si1133   Si       0.17813    0.16615    0.97221    1.000
    Si1134   Si       0.19881    0.20409    0.91467    1.000
    N1135    N        0.21334    0.24036    0.93653    1.000
    Si1136   Si       0.18717    0.29884    0.10479    1.000
    N1137    N        0.20543    0.29826    0.06617    1.000
    Si1138   Si       0.19492    0.26366    0.04205    1.000
    N1139    N        0.21785    0.26421    0.00413    1.000
    N1140    N        0.21951    0.36194    0.03159    1.000
    N1141    N        0.21424    0.46593    0.08372    1.000
    Si1142   Si       0.17697    0.48924    0.08295    1.000
    N1143    N        0.21573    0.49133    0.02044    1.000
    Si1144   Si       0.21378    0.40065    0.05302    1.000
    N1145    N        0.17024    0.40226    0.05028    1.000
    Si1146   Si       0.22210    0.43576    0.11728    1.000
    N1147    N        0.20090    0.33442    0.12827    1.000
    Si1148   Si       0.19917    0.33580    0.17138    1.000
    Si1149   Si       0.17531    0.26884    0.16950    1.000
    N1150    N        0.19348    0.37540    0.18510    1.000
    N1151    N        0.18994    0.26473    0.12906    1.000
    N1152    N        0.16918    0.30745    0.18629    1.000
    N1153    N        0.18695    0.43391    0.14550    1.000
    Si1154   Si       0.21581    0.39130    0.21794    1.000
    N1155    N        0.21779    0.49365    0.15641    1.000
    Si1156   Si       0.17594    0.47564    0.22317    1.000
    Si1157   Si       0.18029    0.47541    0.15461    1.000
    N1158    N        0.20332    0.44259    0.21233    1.000
    N1159    N        0.19828    0.50639    0.24720    1.000
    N1160    N        0.19139    0.32594    0.27529    1.000
    N1161    N        0.18872    0.35372    0.34745    1.000
    Si1162   Si       0.16979    0.28856    0.28702    1.000
    Si1163   Si       0.16770    0.36187    0.26688    1.000
    Si1164   Si       0.21516    0.38712    0.33929    1.000
    N1165    N        0.19495    0.39316    0.25592    1.000
    N1166    N        0.19700    0.42092    0.31797    1.000
    N1167    N        0.16818    0.48958    0.31028    1.000
    Si1168   Si       0.22123    0.41304    0.28231    1.000
    Si1169   Si       0.16655    0.44971    0.32725    1.000
    Si1170   Si       0.18557    0.31570    0.48915    1.000
    N1171    N        0.17345    0.36256    0.41680    1.000
    N1172    N        0.21097    0.34796    0.47407    1.000
    Si1173   Si       0.19196    0.28459    0.41348    1.000
    Si1174   Si       0.20436    0.35334    0.38846    1.000
    N1175    N        0.17440    0.29385    0.45230    1.000
    N1176    N        0.21855    0.31512    0.39853    1.000
    Si1177   Si       0.19346    0.38056    0.45059    1.000
    N1178    N        0.16803    0.45484    0.37048    1.000
    N1179    N        0.17035    0.41142    0.47437    1.000
    N1180    N        0.19636    0.47660    0.43930    1.000
    Si1181   Si       0.20647    0.44210    0.46260    1.000
    Si1182   Si       0.20071    0.47171    0.39375    1.000
    N1183    N        0.22326    0.41016    0.43848    1.000
    Si1184   Si       0.20321    0.31077    0.56045    1.000
    N1185    N        0.21575    0.30587    0.51884    1.000
    N1186    N        0.22074    0.27226    0.57158    1.000
    N1187    N        0.22200    0.34657    0.57295    1.000
    Si1188   Si       0.20395    0.38471    0.56980    1.000
    N1189    N        0.17281    0.38512    0.53964    1.000
    N1190    N        0.19000    0.40619    0.60366    1.000
    N1191    N        0.21070    0.47849    0.58015    1.000
    Si1192   Si       0.18269    0.42127    0.51546    1.000
    Si1193   Si       0.18809    0.49087    0.54793    1.000
    N1194    N        0.22317    0.43507    0.50028    1.000
    N1195    N        0.18920    0.28656    0.73239    1.000
    N1196    N        0.17949    0.37082    0.67723    1.000
    Si1197   Si       0.21605    0.30075    0.65687    1.000
    N1198    N        0.17329    0.30852    0.64603    1.000
    Si1199   Si       0.22217    0.37203    0.68213    1.000
    N1200    N        0.20710    0.42462    0.66923    1.000
    Si1201   Si       0.16577    0.41067    0.68261    1.000
    N1202    N        0.17236    0.42366    0.72667    1.000
    N1203    N        0.20802    0.49614    0.67034    1.000
    Si1204   Si       0.21372    0.42050    0.74179    1.000
    N1205    N        0.17908    0.31697    0.80074    1.000
    Si1206   Si       0.20495    0.30573    0.76781    1.000
    N1207    N        0.18585    0.36183    0.86185    1.000
    N1208    N        0.18312    0.47795    0.78886    1.000
    Si1209   Si       0.18169    0.43858    0.80281    1.000
    N1210    N        0.19105    0.43012    0.84565    1.000
    N1211    N        0.21675    0.41797    0.78537    1.000
    Si1212   Si       0.17511    0.40418    0.87580    1.000
    Si1213   Si       0.20900    0.50958    0.80006    1.000
    Si1214   Si       0.20156    0.27414    0.90782    1.000
    N1215    N        0.18687    0.31198    0.92237    1.000
    N1216    N        0.18182    0.37775    0.97873    1.000
    N1217    N        0.19477    0.40516    0.91696    1.000
    Si1218   Si       0.18171    0.49184    0.90943    1.000
    Si1219   Si       0.21128    0.49409    0.97644    1.000
    N1220    N        0.17604    0.48228    0.95241    1.000
    Si1221   Si       0.19970    0.53286    0.03128    1.000
    N1222    N        0.18617    0.52925    0.07211    1.000
    Si1223   Si       0.19686    0.61392    0.01402    1.000
    N1224    N        0.18531    0.59631    0.09833    1.000
    N1225    N        0.17626    0.57821    0.03036    1.000
    N1226    N        0.21374    0.63326    0.05062    1.000
    Si1227   Si       0.22389    0.61516    0.08901    1.000
    Si1228   Si       0.16443    0.56829    0.07129    1.000
    N1229    N        0.20656    0.70288    0.05502    1.000
    Si1230   Si       0.16830    0.70271    0.03379    1.000
    N1231    N        0.20359    0.61899    0.21504    1.000
    Si1232   Si       0.17126    0.62375    0.18670    1.000
    N1233    N        0.16730    0.75869    0.16678    1.000
    Si1234   Si       0.17228    0.72409    0.14170    1.000
    N1235    N        0.22184    0.74091    0.20631    1.000
    N1236    N        0.19109    0.64009    0.15218    1.000
    N1237    N        0.21299    0.71177    0.13875    1.000
    Si1238   Si       0.22217    0.66893    0.14330    1.000
    Si1239   Si       0.21453    0.57012    0.31619    1.000
    Si1240   Si       0.19728    0.60802    0.25557    1.000
    N1241    N        0.21913    0.57129    0.27246    1.000
    N1242    N        0.17187    0.55729    0.31984    1.000
    Si1243   Si       0.19875    0.68360    0.26255    1.000
    Si1244   Si       0.18642    0.74872    0.30314    1.000
    N1245    N        0.20782    0.64401    0.27777    1.000
    N1246    N        0.21712    0.72145    0.28203    1.000
    N1247    N        0.16691    0.66271    0.35795    1.000
    Si1248   Si       0.20832    0.67258    0.36741    1.000
    N1249    N        0.19448    0.51206    0.37539    1.000
    Si1250   Si       0.20919    0.57224    0.44142    1.000
    N1251    N        0.20595    0.61136    0.45734    1.000
    N1252    N        0.17221    0.55011    0.44196    1.000
    N1253    N        0.21692    0.63927    0.39261    1.000
    Si1254   Si       0.22186    0.64165    0.48519    1.000
    Si1255   Si       0.18991    0.73736    0.47200    1.000
    Si1256   Si       0.19662    0.64286    0.43121    1.000
    N1257    N        0.21179    0.67325    0.45886    1.000
    N1258    N        0.22227    0.70071    0.39549    1.000
    Si1259   Si       0.19415    0.60471    0.53443    1.000
    N1260    N        0.20862    0.52168    0.52361    1.000
    Si1261   Si       0.18102    0.61681    0.61577    1.000
    N1262    N        0.17640    0.61778    0.57453    1.000
    Si1263   Si       0.16806    0.53398    0.51601    1.000
    N1264    N        0.19227    0.64336    0.51608    1.000
    Si1265   Si       0.20416    0.73401    0.54722    1.000
    N1266    N        0.19021    0.71741    0.51077    1.000
    Si1267   Si       0.21615    0.68302    0.61289    1.000
    N1268    N        0.21747    0.70733    0.57704    1.000
    Si1269   Si       0.16750    0.67855    0.51209    1.000
    N1270    N        0.16698    0.75301    0.56193    1.000
    N1271    N        0.19930    0.59317    0.70667    1.000
    Si1272   Si       0.21225    0.57335    0.66829    1.000
    N1273    N        0.21529    0.60143    0.63581    1.000
    N1274    N        0.17215    0.55348    0.66925    1.000
    Si1275   Si       0.17286    0.51102    0.65274    1.000
    N1276    N        0.18335    0.66039    0.62542    1.000
    N1277    N        0.18116    0.66584    0.69785    1.000
    Si1278   Si       0.19326    0.68789    0.73474    1.000
    Si1279   Si       0.21077    0.63235    0.70428    1.000
    Si1280   Si       0.17610    0.68677    0.65965    1.000
    N1281    N        0.21237    0.70878    0.64618    1.000
    N1282    N        0.18844    0.54387    0.78402    1.000
    N1283    N        0.17727    0.61177    0.77131    1.000
    N1284    N        0.17970    0.58365    0.84235    1.000
    N1285    N        0.20416    0.51940    0.84267    1.000
    Si1286   Si       0.19270    0.58284    0.80171    1.000
    Si1287   Si       0.17093    0.54452    0.86066    1.000
    N1288    N        0.21633    0.63022    0.87264    1.000
    Si1289   Si       0.20937    0.64133    0.77760    1.000
    N1290    N        0.18894    0.67927    0.78215    1.000
    N1291    N        0.18735    0.70005    0.85042    1.000
    Si1292   Si       0.21095    0.70039    0.81532    1.000
    Si1293   Si       0.17519    0.61938    0.87674    1.000
    N1294    N        0.20558    0.59243    0.92730    1.000
    Si1295   Si       0.18768    0.55489    0.94008    1.000
    N1296    N        0.17950    0.53409    0.90310    1.000
    N1297    N        0.21758    0.53684    0.96600    1.000
    Si1298   Si       0.19710    0.63021    0.94578    1.000
    N1299    N        0.17147    0.62829    0.98379    1.000
    N1300    N        0.17066    0.64867    0.91616    1.000
    Si1301   Si       0.17885    0.72409    0.88854    1.000
    N1302    N        0.18006    0.69718    0.99125    1.000
    Si1303   Si       0.20910    0.70301    0.96074    1.000
    N1304    N        0.19170    0.73089    0.93027    1.000
    Si1305   Si       0.20830    0.81430    0.08226    1.000
    N1306    N        0.19513    0.77351    0.07320    1.000
    Si1307   Si       0.19000    0.81564    0.00797    1.000
    N1308    N        0.20940    0.83388    0.04184    1.000
    N1309    N        0.17434    0.82940    0.10858    1.000
    Si1310   Si       0.20588    0.87610    0.04906    1.000
    Si1311   Si       0.17362    0.87108    0.09998    1.000
    N1312    N        0.21622    0.88107    0.09337    1.000
    N1313    N        0.19102    0.97272    0.04911    1.000
    Si1314   Si       0.18295    0.94089    0.02012    1.000
    N1315    N        0.21617    0.91137    0.02602    1.000
    N1316    N        0.17429    0.87149    0.19838    1.000
    Si1317   Si       0.20208    0.77307    0.18653    1.000
    N1318    N        0.19977    0.80994    0.20836    1.000
    Si1319   Si       0.21216    0.85018    0.19517    1.000
    N1320    N        0.20646    0.92248    0.14792    1.000
    Si1321   Si       0.17173    0.90764    0.22081    1.000
    N1322    N        0.19642    0.94226    0.21459    1.000
    Si1323   Si       0.17972    0.97398    0.24016    1.000
    Si1324   Si       0.16653    0.93078    0.13722    1.000
    N1325    N        0.20323    0.83608    0.27968    1.000
    Si1326   Si       0.19096    0.81624    0.32100    1.000
    N1327    N        0.20962    0.77718    0.32695    1.000
    N1328    N        0.19529    0.83786    0.36102    1.000
    N1329    N        0.17288    0.77736    0.27306    1.000
    Si1330   Si       0.20201    0.80250    0.25103    1.000
    Si1331   Si       0.20111    0.88192    0.36654    1.000
    N1332    N        0.18329    0.90312    0.33249    1.000
    Si1333   Si       0.18541    0.98274    0.32002    1.000
    Si1334   Si       0.19919    0.92031    0.29492    1.000
    N1335    N        0.17318    0.89736    0.26618    1.000
    N1336    N        0.20137    0.99703    0.35840    1.000
    N1337    N        0.22144    0.95952    0.30811    1.000
    Si1338   Si       0.18964    0.80877    0.39354    1.000
    N1339    N        0.18856    0.83475    0.43023    1.000
    Si1340   Si       0.19768    0.81497    0.46846    1.000
    N1341    N        0.17323    0.77734    0.47490    1.000
    N1342    N        0.17744    0.89623    0.40250    1.000
    N1343    N        0.21455    0.95569    0.40855    1.000
    Si1344   Si       0.21531    0.99778    0.39902    1.000
    Si1345   Si       0.17447    0.93941    0.40645    1.000
    Si1346   Si       0.18643    0.85146    0.59837    1.000
    N1347    N        0.18715    0.84263    0.50032    1.000
    N1348    N        0.17103    0.82207    0.56954    1.000
    Si1349   Si       0.18426    0.88782    0.50110    1.000
    N1350    N        0.21459    0.83162    0.62502    1.000
    N1351    N        0.19908    0.89032    0.58527    1.000
    N1352    N        0.18128    0.94876    0.54753    1.000
    N1353    N        0.22059    0.90683    0.51074    1.000
    Si1354   Si       0.22068    0.94221    0.53592    1.000
    N1355    N        0.18684    0.77231    0.62775    1.000
    Si1356   Si       0.21114    0.79698    0.65260    1.000
    Si1357   Si       0.18179    0.85836    0.66587    1.000
    Si1358   Si       0.20452    0.80741    0.72178    1.000
    N1359    N        0.18698    0.81684    0.68287    1.000
    N1360    N        0.21949    0.88163    0.66683    1.000
    N1361    N        0.22118    0.77535    0.74477    1.000
    N1362    N        0.22178    0.93525    0.62953    1.000
    Si1363   Si       0.21526    0.97786    0.62835    1.000
    Si1364   Si       0.17501    0.98891    0.67905    1.000
    N1365    N        0.18670    0.94811    0.68552    1.000
    N1366    N        0.17402    0.98953    0.63498    1.000
    N1367    N        0.17831    0.78486    0.80126    1.000
    N1368    N        0.19671    0.82256    0.85773    1.000
    Si1369   Si       0.17113    0.78865    0.84339    1.000
    Si1370   Si       0.21860    0.77649    0.78783    1.000
    Si1371   Si       0.19134    0.86403    0.86997    1.000
    N1372    N        0.16642    0.88911    0.76279    1.000
    N1373    N        0.20444    0.89467    0.83946    1.000
    N1374    N        0.20432    0.93855    0.78628    1.000
    Si1375   Si       0.18605    0.93133    0.82697    1.000
    Si1376   Si       0.20763    0.90346    0.75967    1.000
    N1377    N        0.21616    0.96071    0.84263    1.000
    N1378    N        0.18828    0.76264    0.87281    1.000
    N1379    N        0.21185    0.85797    0.90875    1.000
    N1380    N        0.20537    0.83609    0.97300    1.000
    Si1381   Si       0.18073    0.84083    0.93660    1.000
    Si1382   Si       0.19093    0.77226    0.94399    1.000
    N1383    N        0.19598    0.77422    0.98863    1.000
    Si1384   Si       0.21800    0.79170    0.88383    1.000
    N1385    N        0.22481    0.79281    0.92641    1.000
    Si1386   Si       0.20848    0.96582    0.88389    1.000
    Si1387   Si       0.16834    0.91027    0.92691    1.000
    N1388    N        0.17690    0.93818    0.89025    1.000
    N1389    N        0.21359    0.91340    0.94218    1.000
    Si1390   Si       0.21958    0.95324    0.95758    1.000
    N1391    N        0.18611    0.96100    0.98181    1.000
    Si1392   Si       0.24894    0.05958    0.03803    1.000
    N1393    N        0.24153    0.01858    0.02891    1.000
    Si1394   Si       0.23655    0.11157    0.09301    1.000
    N1395    N        0.23641    0.07227    0.07663    1.000
    N1396    N        0.22294    0.08463    0.01454    1.000
    N1397    N        0.22795    0.00868    0.10029    1.000
    N1398    N        0.27052    0.13821    0.08264    1.000
    Si1399   Si       0.23999    0.19492    0.00800    1.000
    Si1400   Si       0.26619    0.22611    0.08930    1.000
    N1401    N        0.25532    0.20511    0.05166    1.000
    Si1402   Si       0.24254    0.16396    0.06078    1.000
    N1403    N        0.24010    0.15244    0.01935    1.000
    N1404    N        0.27724    0.05941    0.22623    1.000
    Si1405   Si       0.26590    0.11579    0.16157    1.000
    Si1406   Si       0.26938    0.05019    0.18348    1.000
    N1407    N        0.23036    0.11218    0.13597    1.000
    N1408    N        0.24759    0.11517    0.20171    1.000
    Si1409   Si       0.25424    0.09389    0.23891    1.000
    N1410    N        0.22635    0.05650    0.17766    1.000
    Si1411   Si       0.25930    0.19079    0.15356    1.000
    N1412    N        0.23884    0.20943    0.11925    1.000
    N1413    N        0.22617    0.17999    0.18073    1.000
    N1414    N        0.24479    0.22347    0.23475    1.000
    Si1415   Si       0.26592    0.05673    0.33248    1.000
    N1416    N        0.23157    0.08242    0.33577    1.000
    N1417    N        0.27121    0.12762    0.25912    1.000
    N1418    N        0.25346    0.01433    0.27217    1.000
    N1419    N        0.26666    0.01274    0.33649    1.000
    N1420    N        0.26881    0.25210    0.29479    1.000
    Si1421   Si       0.23393    0.16997    0.33222    1.000
    Si1422   Si       0.24074    0.15523    0.27206    1.000
    N1423    N        0.26423    0.18262    0.30049    1.000
    Si1424   Si       0.23531    0.25346    0.26709    1.000
    N1425    N        0.24393    0.14744    0.36823    1.000
    Si1426   Si       0.22353    0.10620    0.37261    1.000
    N1427    N        0.25490    0.01440    0.40877    1.000
    Si1428   Si       0.26777    0.02639    0.44893    1.000
    N1429    N        0.23203    0.03628    0.47076    1.000
    N1430    N        0.22269    0.08390    0.40977    1.000
    N1431    N        0.23750    0.21009    0.45955    1.000
    Si1432   Si       0.23428    0.23748    0.36995    1.000
    Si1433   Si       0.27019    0.17356    0.39156    1.000
    N1434    N        0.23282    0.14283    0.48744    1.000
    N1435    N        0.26273    0.21554    0.39251    1.000
    Si1436   Si       0.25999    0.17204    0.47007    1.000
    Si1437   Si       0.26143    0.24050    0.48097    1.000
    N1438    N        0.27494    0.15754    0.43064    1.000
    Si1439   Si       0.26588    0.07993    0.58006    1.000
    N1440    N        0.27383    0.10050    0.53889    1.000
    Si1441   Si       0.26781    0.01623    0.61784    1.000
    Si1442   Si       0.24563    0.13187    0.52995    1.000
    N1443    N        0.22715    0.03692    0.53679    1.000
    N1444    N        0.24590    0.23248    0.52184    1.000
    N1445    N        0.25256    0.16950    0.55111    1.000
    Si1446   Si       0.22449    0.20030    0.54214    1.000
    N1447    N        0.26025    0.23710    0.61936    1.000
    N1448    N        0.27177    0.01472    0.71666    1.000
    N1449    N        0.26505    0.04489    0.65168    1.000
    N1450    N        0.24030    0.11074    0.66040    1.000
    Si1451   Si       0.24408    0.02038    0.68337    1.000
    Si1452   Si       0.27463    0.08541    0.65184    1.000
    N1453    N        0.26500    0.09886    0.73642    1.000
    N1454    N        0.26272    0.21819    0.67853    1.000
    Si1455   Si       0.23515    0.14932    0.63752    1.000
    N1456    N        0.24244    0.15483    0.71198    1.000
    N1457    N        0.25232    0.22151    0.74250    1.000
    Si1458   Si       0.23675    0.19792    0.70770    1.000
    Si1459   Si       0.26774    0.14111    0.74385    1.000
    N1460    N        0.27439    0.16754    0.63126    1.000
    Si1461   Si       0.22880    0.22728    0.64714    1.000
    N1462    N        0.25327    0.09481    0.79866    1.000
    N1463    N        0.25209    0.02727    0.83124    1.000
    Si1464   Si       0.26265    0.01921    0.76033    1.000
    Si1465   Si       0.27510    0.05987    0.81508    1.000
    Si1466   Si       0.22820    0.08715    0.75834    1.000
    Si1467   Si       0.24614    0.13548    0.81190    1.000
    N1468    N        0.25193    0.16192    0.77900    1.000
    Si1469   Si       0.24627    0.20537    0.78168    1.000
    N1470    N        0.28030    0.21666    0.80575    1.000
    N1471    N        0.26083    0.04315    0.89895    1.000
    N1472    N        0.24707    0.11277    0.90927    1.000
    Si1473   Si       0.23128    0.07581    0.89883    1.000
    N1474    N        0.27404    0.11090    0.97310    1.000
    N1475    N        0.23398    0.02110    0.95968    1.000
    Si1476   Si       0.23558    0.01286    0.91713    1.000
    Si1477   Si       0.23506    0.11967    0.99157    1.000
    N1478    N        0.26499    0.19654    0.97416    1.000
    Si1479   Si       0.27028    0.18793    0.93147    1.000
    Si1480   Si       0.25681    0.25294    0.93769    1.000
    N1481    N        0.23083    0.17782    0.91562    1.000
    N1482    N        0.25497    0.33294    0.09312    1.000
    N1483    N        0.26762    0.30783    0.03167    1.000
    Si1484   Si       0.23655    0.32516    0.05374    1.000
    Si1485   Si       0.23474    0.36244    0.11558    1.000
    N1486    N        0.27535    0.26683    0.09417    1.000
    N1487    N        0.22838    0.39962    0.09541    1.000
    N1488    N        0.23867    0.42819    0.02878    1.000
    Si1489   Si       0.23865    0.46818    0.04749    1.000
    N1490    N        0.27761    0.48263    0.05081    1.000
    N1491    N        0.23812    0.31620    0.18058    1.000
    N1492    N        0.26167    0.37360    0.14788    1.000
    Si1493   Si       0.24235    0.27718    0.20020    1.000
    N1494    N        0.24343    0.35977    0.23719    1.000
    Si1495   Si       0.27339    0.33878    0.16967    1.000
    Si1496   Si       0.28175    0.37684    0.22786    1.000
    N1497    N        0.23602    0.28966    0.24266    1.000
    Si1498   Si       0.25855    0.49196    0.14333    1.000
    N1499    N        0.25748    0.44644    0.14048    1.000
    N1500    N        0.27153    0.47831    0.22302    1.000
    N1501    N        0.26114    0.41000    0.20532    1.000
    Si1502   Si       0.24504    0.44638    0.22167    1.000
    Si1503   Si       0.27723    0.41232    0.16247    1.000
    N1504    N        0.26294    0.32129    0.29482    1.000
    N1505    N        0.25355    0.27326    0.35681    1.000
    Si1506   Si       0.23286    0.32760    0.26512    1.000
    Si1507   Si       0.27264    0.28599    0.31972    1.000
    Si1508   Si       0.28051    0.36290    0.29928    1.000
    N1509    N        0.24405    0.38374    0.30715    1.000
    N1510    N        0.24677    0.44235    0.26672    1.000
    Si1511   Si       0.27446    0.47589    0.26515    1.000
    N1512    N        0.28580    0.48288    0.33900    1.000
    Si1513   Si       0.25849    0.30101    0.39186    1.000
    N1514    N        0.26785    0.27521    0.42495    1.000
    N1515    N        0.26458    0.28263    0.48841    1.000
    Si1516   Si       0.24644    0.32918    0.49165    1.000
    N1517    N        0.23402    0.38344    0.37932    1.000
    Si1518   Si       0.24952    0.41319    0.40561    1.000
    N1519    N        0.23910    0.45182    0.38560    1.000
    Si1520   Si       0.27285    0.47978    0.38066    1.000
    N1521    N        0.28163    0.49682    0.46546    1.000
    Si1522   Si       0.26112    0.36034    0.56306    1.000
    Si1523   Si       0.24859    0.27400    0.53139    1.000
    Si1524   Si       0.25614    0.27336    0.59600    1.000
    N1525    N        0.27205    0.34613    0.52436    1.000
    N1526    N        0.28190    0.28021    0.56020    1.000
    Si1527   Si       0.25087    0.46740    0.58010    1.000
    Si1528   Si       0.25793    0.42539    0.52252    1.000
    N1529    N        0.26722    0.46412    0.53998    1.000
    N1530    N        0.24169    0.40137    0.55470    1.000
    N1531    N        0.25574    0.43836    0.61344    1.000
    N1532    N        0.27727    0.49627    0.60049    1.000
    N1533    N        0.24372    0.30449    0.62374    1.000
    N1534    N        0.23505    0.32994    0.68558    1.000
    N1535    N        0.24242    0.37604    0.64194    1.000
    Si1536   Si       0.27702    0.32153    0.69431    1.000
    Si1537   Si       0.26581    0.34302    0.62960    1.000
    N1538    N        0.23436    0.38600    0.72330    1.000
    N1539    N        0.26672    0.47558    0.67115    1.000
    N1540    N        0.23193    0.45584    0.72693    1.000
    Si1541   Si       0.22533    0.46038    0.68463    1.000
    Si1542   Si       0.22266    0.41450    0.63045    1.000
    N1543    N        0.23942    0.33332    0.76990    1.000
    N1544    N        0.24511    0.32292    0.84510    1.000
    Si1545   Si       0.25585    0.31099    0.80423    1.000
    Si1546   Si       0.22838    0.35713    0.86618    1.000
    Si1547   Si       0.26016    0.36532    0.75069    1.000
    N1548    N        0.22859    0.27710    0.79518    1.000
    Si1549   Si       0.25236    0.28640    0.86804    1.000
    N1550    N        0.25350    0.38733    0.84749    1.000
    Si1551   Si       0.25197    0.41044    0.80964    1.000
    N1552    N        0.24748    0.49904    0.78906    1.000
    N1553    N        0.27307    0.44499    0.83236    1.000
    Si1554   Si       0.27736    0.48571    0.81962    1.000
    Si1555   Si       0.27809    0.41930    0.86804    1.000
    N1556    N        0.28011    0.39002    0.78108    1.000
    Si1557   Si       0.25762    0.48362    0.74899    1.000
    N1558    N        0.27949    0.26850    0.97288    1.000
    Si1559   Si       0.25454    0.32592    0.93435    1.000
    N1560    N        0.24339    0.35796    0.90760    1.000
    N1561    N        0.24810    0.28887    0.91281    1.000
    N1562    N        0.23790    0.32590    0.97365    1.000
    Si1563   Si       0.25072    0.29038    0.99518    1.000
    Si1564   Si       0.22262    0.36448    0.98697    1.000
    N1565    N        0.22404    0.48615    0.90075    1.000
    Si1566   Si       0.25767    0.43141    0.98945    1.000
    Si1567   Si       0.23810    0.39873    0.92446    1.000
    N1568    N        0.25058    0.39376    0.96718    1.000
    N1569    N        0.24167    0.46473    0.96470    1.000
    Si1570   Si       0.25462    0.46900    0.92378    1.000
    N1571    N        0.26222    0.42942    0.90690    1.000
    N1572    N        0.25337    0.58423    0.09013    1.000
    Si1573   Si       0.26883    0.57422    0.05196    1.000
    N1574    N        0.26136    0.52162    0.11107    1.000
    N1575    N        0.23758    0.55455    0.02983    1.000
    Si1576   Si       0.26350    0.63492    0.00941    1.000
    N1577    N        0.26342    0.67227    0.03040    1.000
    N1578    N        0.25496    0.74361    0.09633    1.000
    N1579    N        0.23637    0.65556    0.10216    1.000
    Si1580   Si       0.23340    0.67055    0.06144    1.000
    N1581    N        0.25480    0.74465    0.03311    1.000
    Si1582   Si       0.28337    0.70974    0.02155    1.000
    Si1583   Si       0.22277    0.73999    0.06573    1.000
    Si1584   Si       0.27142    0.56318    0.12394    1.000
    N1585    N        0.25678    0.54152    0.22113    1.000
    N1586    N        0.25922    0.58213    0.16073    1.000
    N1587    N        0.27177    0.61899    0.22422    1.000
    Si1588   Si       0.27018    0.57940    0.20332    1.000
    N1589    N        0.25104    0.66784    0.17479    1.000
    Si1590   Si       0.25119    0.70865    0.19741    1.000
    N1591    N        0.22925    0.68359    0.23047    1.000
    N1592    N        0.27445    0.72822    0.16394    1.000
    Si1593   Si       0.23942    0.64498    0.20929    1.000
    N1594    N        0.27652    0.72343    0.23179    1.000
    Si1595   Si       0.24478    0.74269    0.13847    1.000
    N1596    N        0.24243    0.54450    0.33956    1.000
    Si1597   Si       0.27866    0.52316    0.32166    1.000
    N1598    N        0.26210    0.51274    0.28208    1.000
    N1599    N        0.27576    0.63113    0.29336    1.000
    Si1600   Si       0.23345    0.53398    0.25619    1.000
    N1601    N        0.22565    0.60664    0.33479    1.000
    Si1602   Si       0.23830    0.64082    0.30940    1.000
    Si1603   Si       0.24639    0.71305    0.31555    1.000
    N1604    N        0.26585    0.73870    0.34784    1.000
    N1605    N        0.23321    0.67623    0.33267    1.000
    Si1606   Si       0.23869    0.73954    0.24654    1.000
    N1607    N        0.26059    0.51459    0.40260    1.000
    Si1608   Si       0.23763    0.60606    0.37660    1.000
    Si1609   Si       0.26834    0.53221    0.44376    1.000
    N1610    N        0.23688    0.54785    0.46758    1.000
    Si1611   Si       0.23007    0.53535    0.37872    1.000
    N1612    N        0.27876    0.60912    0.38185    1.000
    N1613    N        0.22262    0.57143    0.40106    1.000
    N1614    N        0.27994    0.69326    0.44696    1.000
    Si1615   Si       0.23831    0.70014    0.43543    1.000
    N1616    N        0.22545    0.74094    0.44907    1.000
    Si1617   Si       0.24085    0.54909    0.51203    1.000
    N1618    N        0.23560    0.58965    0.52818    1.000
    Si1619   Si       0.27314    0.61382    0.52813    1.000
    N1620    N        0.28020    0.53191    0.52187    1.000
    Si1621   Si       0.25735    0.72688    0.57838    1.000
    N1622    N        0.25084    0.65784    0.61361    1.000
    N1623    N        0.26662    0.73272    0.61935    1.000
    N1624    N        0.26322    0.63985    0.49489    1.000
    N1625    N        0.24367    0.75443    0.54613    1.000
    Si1626   Si       0.25119    0.62603    0.64213    1.000
    N1627    N        0.24999    0.55227    0.66533    1.000
    N1628    N        0.26161    0.51882    0.72247    1.000
    Si1629   Si       0.24927    0.51271    0.68305    1.000
    N1630    N        0.26612    0.58600    0.74755    1.000
    N1631    N        0.24607    0.64342    0.68137    1.000
    N1632    N        0.27592    0.70384    0.67714    1.000
    N1633    N        0.22690    0.65207    0.74065    1.000
    Si1634   Si       0.25540    0.67634    0.70807    1.000
    Si1635   Si       0.24497    0.75141    0.71756    1.000
    Si1636   Si       0.24468    0.73008    0.65874    1.000
    N1637    N        0.22791    0.71144    0.72090    1.000
    Si1638   Si       0.27031    0.59422    0.79018    1.000
    N1639    N        0.27616    0.60803    0.85330    1.000
    N1640    N        0.23085    0.60990    0.80265    1.000
    Si1641   Si       0.27962    0.56045    0.85564    1.000
    Si1642   Si       0.24069    0.63128    0.83858    1.000
    N1643    N        0.27432    0.51102    0.85668    1.000
    N1644    N        0.24244    0.67050    0.82157    1.000
    N1645    N        0.23047    0.73969    0.80889    1.000
    Si1646   Si       0.26522    0.75703    0.83163    1.000
    Si1647   Si       0.28138    0.68945    0.82644    1.000
    N1648    N        0.28037    0.72370    0.85578    1.000
    Si1649   Si       0.23302    0.51717    0.87339    1.000
    N1650    N        0.26908    0.61215    0.92198    1.000
    Si1651   Si       0.24288    0.56602    0.98684    1.000
    Si1652   Si       0.23733    0.59943    0.89530    1.000
    N1653    N        0.24378    0.56000    0.88063    1.000
    N1654    N        0.23325    0.60838    0.99266    1.000
    N1655    N        0.22670    0.66305    0.94825    1.000
    N1656    N        0.24492    0.72701    0.97159    1.000
    Si1657   Si       0.26617    0.65399    0.93709    1.000
    N1658    N        0.24786    0.81504    0.09856    1.000
    N1659    N        0.25888    0.95911    0.05179    1.000
    Si1660   Si       0.25424    0.93279    0.01795    1.000
    Si1661   Si       0.22989    0.99036    0.05915    1.000
    Si1662   Si       0.24921    0.81695    0.14301    1.000
    N1663    N        0.23742    0.86885    0.22450    1.000
    N1664    N        0.22913    0.78030    0.15228    1.000
    N1665    N        0.22736    0.85138    0.15542    1.000
    N1666    N        0.22053    0.98643    0.16450    1.000
    Si1667   Si       0.22264    0.94644    0.17953    1.000
    Si1668   Si       0.23058    0.88733    0.13284    1.000
    Si1669   Si       0.27119    0.89478    0.21503    1.000
    N1670    N        0.27121    0.90073    0.12792    1.000
    Si1671   Si       0.25107    0.99546    0.13594    1.000
    N1672    N        0.25868    0.92481    0.18693    1.000
    Si1673   Si       0.24508    0.77708    0.35345    1.000
    Si1674   Si       0.23928    0.86136    0.26729    1.000
    N1675    N        0.24130    0.78169    0.25563    1.000
    N1676    N        0.27333    0.80846    0.34351    1.000
    N1677    N        0.27403    0.83702    0.27517    1.000
    Si1678   Si       0.25648    0.98603    0.30439    1.000
    N1679    N        0.23743    0.89894    0.28835    1.000
    Si1680   Si       0.27462    0.91923    0.28998    1.000
    N1681    N        0.24138    0.80749    0.46363    1.000
    Si1682   Si       0.24534    0.77675    0.43389    1.000
    Si1683   Si       0.27659    0.82855    0.47562    1.000
    N1684    N        0.22800    0.78581    0.39555    1.000
    N1685    N        0.24064    0.89424    0.37753    1.000
    N1686    N        0.25705    0.90735    0.44596    1.000
    Si1687   Si       0.24550    0.92586    0.40796    1.000
    Si1688   Si       0.25658    0.90285    0.49013    1.000
    N1689    N        0.28729    0.93276    0.49083    1.000
    N1690    N        0.27318    0.86470    0.49835    1.000
    N1691    N        0.26303    0.88106    0.60878    1.000
    N1692    N        0.23485    0.97538    0.51079    1.000
    N1693    N        0.25003    0.93976    0.56816    1.000
    Si1694   Si       0.23432    0.91057    0.59587    1.000
    Si1695   Si       0.27893    0.97204    0.50789    1.000
    N1696    N        0.22849    0.00845    0.60172    1.000
    N1697    N        0.23043    0.84194    0.73008    1.000
    N1698    N        0.23577    0.76866    0.67759    1.000
    N1699    N        0.26883    0.84485    0.67072    1.000
    Si1700   Si       0.24394    0.85881    0.63916    1.000
    Si1701   Si       0.24911    0.87315    0.70406    1.000
    Si1702   Si       0.22409    0.92503    0.67594    1.000
    Si1703   Si       0.28415    0.96028    0.65191    1.000
    N1704    N        0.24717    0.98382    0.65932    1.000
    N1705    N        0.22734    0.90991    0.72171    1.000
    N1706    N        0.27196    0.92336    0.67451    1.000
    N1707    N        0.26291    0.86535    0.85075    1.000
    Si1708   Si       0.26102    0.82380    0.83762    1.000
    N1709    N        0.23996    0.81310    0.80148    1.000
    N1710    N        0.25493    0.78768    0.86163    1.000
    Si1711   Si       0.24972    0.84099    0.76950    1.000
    N1712    N        0.23693    0.87940    0.78264    1.000
    Si1713   Si       0.24348    0.89544    0.82151    1.000
    N1714    N        0.26963    0.92866    0.81300    1.000
    N1715    N        0.26026    0.98044    0.77663    1.000
    Si1716   Si       0.23722    0.96107    0.80584    1.000
    N1717    N        0.26562    0.85977    0.95510    1.000
    Si1718   Si       0.24414    0.82153    0.95571    1.000
    N1719    N        0.26356    0.79496    0.98421    1.000
    Si1720   Si       0.23806    0.76171    0.99667    1.000
    Si1721   Si       0.24096    0.88367    0.92849    1.000
    N1722    N        0.23650    0.96725    0.91854    1.000
    N1723    N        0.27230    0.90588    0.90512    1.000
    Si1724   Si       0.25664    0.00152    0.99032    1.000
    Si1725   Si       0.27659    0.94917    0.90982    1.000
    N1726    N        0.25168    0.95941    0.98529    1.000
    Si1727   Si       0.31523    0.02492    0.02876    1.000
    N1728    N        0.32466    0.11834    0.02635    1.000
    N1729    N        0.29198    0.06178    0.02675    1.000
    N1730    N        0.32690    0.08625    0.10089    1.000
    Si1731   Si       0.33903    0.11076    0.06776    1.000
    Si1732   Si       0.30441    0.09124    0.99847    1.000
    Si1733   Si       0.30222    0.15905    0.10568    1.000
    N1734    N        0.30145    0.20451    0.10568    1.000
    Si1735   Si       0.33956    0.21676    0.12194    1.000
    N1736    N        0.34066    0.15192    0.08543    1.000
    Si1737   Si       0.32925    0.08899    0.14269    1.000
    N1738    N        0.28893    0.08087    0.15780    1.000
    N1739    N        0.28175    0.01238    0.16584    1.000
    Si1740   Si       0.28616    0.22803    0.21712    1.000
    Si1741   Si       0.31960    0.16405    0.17690    1.000
    N1742    N        0.29072    0.20352    0.18224    1.000
    N1743    N        0.28646    0.15372    0.14696    1.000
    N1744    N        0.33768    0.25455    0.14385    1.000
    N1745    N        0.32277    0.15715    0.22030    1.000
    Si1746   Si       0.33118    0.07396    0.30464    1.000
    N1747    N        0.29086    0.06010    0.29628    1.000
    N1748    N        0.32911    0.10593    0.33371    1.000
    N1749    N        0.32711    0.01773    0.25626    1.000
    Si1750   Si       0.28781    0.03578    0.26186    1.000
    N1751    N        0.29468    0.05995    0.36724    1.000
    N1752    N        0.33772    0.09912    0.26905    1.000
    Si1753   Si       0.31357    0.13023    0.25467    1.000
    Si1754   Si       0.29312    0.21606    0.29457    1.000
    N1755    N        0.32099    0.22029    0.33000    1.000
    N1756    N        0.31028    0.21735    0.25132    1.000
    N1757    N        0.33238    0.15943    0.28208    1.000
    Si1758   Si       0.34031    0.19144    0.35727    1.000
    Si1759   Si       0.33624    0.25765    0.35010    1.000
    Si1760   Si       0.33951    0.18567    0.24701    1.000
    Si1761   Si       0.32933    0.08577    0.37222    1.000
    Si1762   Si       0.28330    0.02000    0.37683    1.000
    N1763    N        0.30272    0.05413    0.44987    1.000
    N1764    N        0.32994    0.10589    0.48770    1.000
    Si1765   Si       0.33370    0.08341    0.44665    1.000
    Si1766   Si       0.32053    0.02782    0.48047    1.000
    N1767    N        0.32459    0.10588    0.41130    1.000
    Si1768   Si       0.33686    0.15858    0.48973    1.000
    N1769    N        0.32204    0.25232    0.39270    1.000
    Si1770   Si       0.28827    0.23804    0.41764    1.000
    N1771    N        0.30068    0.23004    0.46049    1.000
    Si1772   Si       0.31705    0.14634    0.41920    1.000
    N1773    N        0.31301    0.16914    0.38085    1.000
    Si1774   Si       0.34008    0.23643    0.47762    1.000
    N1775    N        0.31263    0.04498    0.51900    1.000
    Si1776   Si       0.31062    0.08815    0.52241    1.000
    Si1777   Si       0.31247    0.02188    0.55597    1.000
    N1778    N        0.28633    0.03930    0.58478    1.000
    N1779    N        0.28239    0.10291    0.61146    1.000
    Si1780   Si       0.30068    0.14187    0.61048    1.000
    N1781    N        0.31389    0.15282    0.57261    1.000
    N1782    N        0.31036    0.21735    0.55721    1.000
    Si1783   Si       0.29434    0.17824    0.54367    1.000
    N1784    N        0.29293    0.17123    0.50133    1.000
    Si1785   Si       0.30904    0.09710    0.71960    1.000
    N1786    N        0.30952    0.08910    0.67750    1.000
    Si1787   Si       0.27997    0.24093    0.71409    1.000
    N1788    N        0.32099    0.23798    0.72553    1.000
    N1789    N        0.32801    0.20686    0.62982    1.000
    N1790    N        0.33577    0.13844    0.63793    1.000
    Si1791   Si       0.28641    0.20707    0.64051    1.000
    N1792    N        0.31202    0.13822    0.73896    1.000
    N1793    N        0.29834    0.07705    0.84839    1.000
    N1794    N        0.29484    0.04228    0.78055    1.000
    Si1795   Si       0.31819    0.11536    0.83832    1.000
    Si1796   Si       0.33584    0.04058    0.76187    1.000
    Si1797   Si       0.30234    0.18323    0.82454    1.000
    N1798    N        0.31307    0.19917    0.86446    1.000
    N1799    N        0.33180    0.17686    0.79375    1.000
    Si1800   Si       0.29935    0.25408    0.81428    1.000
    N1801    N        0.28365    0.14383    0.83234    1.000
    N1802    N        0.33409    0.06612    0.97604    1.000
    N1803    N        0.31307    0.09179    0.91473    1.000
    N1804    N        0.33029    0.02869    0.89143    1.000
    Si1805   Si       0.29994    0.05942    0.88831    1.000
    Si1806   Si       0.28339    0.12053    0.93064    1.000
    Si1807   Si       0.32998    0.16907    0.89220    1.000
    N1808    N        0.28223    0.22689    0.91613    1.000
    N1809    N        0.29879    0.15877    0.92038    1.000
    Si1810   Si       0.30585    0.23650    0.88187    1.000
    N1811    N        0.31663    0.32462    0.07549    1.000
    Si1812   Si       0.30848    0.32256    0.03269    1.000
    N1813    N        0.30720    0.35918    0.00713    1.000
    N1814    N        0.33515    0.29249    0.01396    1.000
    Si1815   Si       0.28775    0.30575    0.10064    1.000
    Si1816   Si       0.31291    0.47668    0.02296    1.000
    N1817    N        0.32370    0.49720    0.10405    1.000
    N1818    N        0.30276    0.34879    0.20081    1.000
    N1819    N        0.29298    0.30971    0.14360    1.000
    Si1820   Si       0.31386    0.28118    0.16819    1.000
    N1821    N        0.28454    0.26652    0.19842    1.000
    N1822    N        0.33473    0.50401    0.22002    1.000
    N1823    N        0.31939    0.41287    0.16853    1.000
    N1824    N        0.31232    0.29067    0.33627    1.000
    N1825    N        0.30680    0.35976    0.33332    1.000
    Si1826   Si       0.31970    0.32693    0.35876    1.000
    N1827    N        0.30481    0.37243    0.26546    1.000
    N1828    N        0.32209    0.42230    0.32449    1.000
    N1829    N        0.31744    0.47398    0.27711    1.000
    Si1830   Si       0.31993    0.46441    0.31807    1.000
    Si1831   Si       0.34299    0.38721    0.33907    1.000
    N1832    N        0.27954    0.34076    0.46143    1.000
    Si1833   Si       0.29958    0.35626    0.42550    1.000
    N1834    N        0.32929    0.29480    0.45390    1.000
    N1835    N        0.29207    0.32847    0.39332    1.000
    Si1836   Si       0.28672    0.29794    0.45547    1.000
    N1837    N        0.28800    0.39712    0.41916    1.000
    N1838    N        0.30312    0.46136    0.40168    1.000
    N1839    N        0.33629    0.44190    0.45062    1.000
    Si1840   Si       0.31288    0.48126    0.43899    1.000
    Si1841   Si       0.32220    0.42276    0.41158    1.000
    Si1842   Si       0.33089    0.35794    0.60439    1.000
    N1843    N        0.28873    0.35418    0.59592    1.000
    N1844    N        0.33812    0.35145    0.50107    1.000
    Si1845   Si       0.31844    0.25996    0.54929    1.000
    Si1846   Si       0.29830    0.36589    0.49560    1.000
    N1847    N        0.34096    0.26433    0.51226    1.000
    Si1848   Si       0.28556    0.49083    0.50884    1.000
    N1849    N        0.32697    0.47372    0.51027    1.000
    N1850    N        0.29413    0.40856    0.50397    1.000
    N1851    N        0.33918    0.49775    0.57456    1.000
    Si1852   Si       0.32846    0.43334    0.49460    1.000
    N1853    N        0.28416    0.28326    0.71330    1.000
    Si1854   Si       0.32620    0.28134    0.72703    1.000
    Si1855   Si       0.32276    0.37641    0.70920    1.000
    N1856    N        0.29185    0.35037    0.72452    1.000
    N1857    N        0.29650    0.33190    0.65805    1.000
    Si1858   Si       0.34007    0.32234    0.66270    1.000
    N1859    N        0.30447    0.40412    0.68035    1.000
    N1860    N        0.32463    0.45654    0.63332    1.000
    Si1861   Si       0.33675    0.41985    0.65684    1.000
    Si1862   Si       0.28378    0.46708    0.63274    1.000
    N1863    N        0.29606    0.29443    0.79943    1.000
    Si1864   Si       0.33586    0.31401    0.79815    1.000
    N1865    N        0.28359    0.26346    0.85468    1.000
    Si1866   Si       0.32524    0.39338    0.78096    1.000
    N1867    N        0.31558    0.49508    0.80349    1.000
    Si1868   Si       0.32821    0.46313    0.77669    1.000
    N1869    N        0.29326    0.45861    0.75443    1.000
    N1870    N        0.33806    0.47673    0.87165    1.000
    N1871    N        0.33928    0.43033    0.80403    1.000
    Si1872   Si       0.28869    0.37148    0.96849    1.000
    N1873    N        0.29527    0.33544    0.94574    1.000
    Si1874   Si       0.32323    0.26732    0.98048    1.000
    Si1875   Si       0.33890    0.33022    0.94384    1.000
    Si1876   Si       0.33342    0.42920    0.97135    1.000
    N1877    N        0.31877    0.40919    0.87524    1.000
    N1878    N        0.28843    0.49315    0.92064    1.000
    N1879    N        0.30006    0.44261    0.99289    1.000
    Si1880   Si       0.31924    0.49437    0.95037    1.000
    N1881    N        0.32032    0.39504    0.94879    1.000
    Si1882   Si       0.30977    0.50836    0.88515    1.000
    Si1883   Si       0.33851    0.39013    0.90950    1.000
    N1884    N        0.30495    0.54806    0.05652    1.000
    Si1885   Si       0.33303    0.61124    0.03351    1.000
    Si1886   Si       0.31269    0.54908    0.00792    1.000
    Si1887   Si       0.33600    0.56594    0.08616    1.000
    N1888    N        0.28923    0.60767    0.03420    1.000
    Si1889   Si       0.28918    0.51214    0.08030    1.000
    N1890    N        0.31540    0.56013    0.12374    1.000
    N1891    N        0.31208    0.72269    0.05342    1.000
    N1892    N        0.33853    0.71422    0.12127    1.000
    Si1893   Si       0.28233    0.75460    0.06633    1.000
    Si1894   Si       0.32783    0.52244    0.14169    1.000
    N1895    N        0.31186    0.56473    0.20744    1.000
    Si1896   Si       0.29520    0.51739    0.20833    1.000
    N1897    N        0.29385    0.50973    0.16540    1.000
    N1898    N        0.33402    0.75973    0.17139    1.000
    Si1899   Si       0.31595    0.72479    0.15916    1.000
    N1900    N        0.33597    0.69298    0.18074    1.000
    N1901    N        0.31571    0.66624    0.24576    1.000
    N1902    N        0.31627    0.54328    0.32304    1.000
    N1903    N        0.33542    0.60461    0.26121    1.000
    Si1904   Si       0.29906    0.62808    0.25796    1.000
    Si1905   Si       0.30557    0.70729    0.25850    1.000
    Si1906   Si       0.30611    0.71795    0.33634    1.000
    N1907    N        0.32050    0.68046    0.34951    1.000
    N1908    N        0.28562    0.70796    0.29728    1.000
    N1909    N        0.33863    0.74666    0.33522    1.000
    N1910    N        0.29681    0.56455    0.43450    1.000
    Si1911   Si       0.30678    0.60157    0.41210    1.000
    Si1912   Si       0.33789    0.61162    0.48051    1.000
    N1913    N        0.31166    0.62660    0.44691    1.000
    Si1914   Si       0.33932    0.55596    0.43471    1.000
    N1915    N        0.34054    0.51260    0.43207    1.000
    Si1916   Si       0.29846    0.73129    0.46452    1.000
    Si1917   Si       0.29376    0.65814    0.46844    1.000
    Si1918   Si       0.31547    0.55446    0.53038    1.000
    N1919    N        0.31400    0.56217    0.57345    1.000
    Si1920   Si       0.30983    0.60078    0.59273    1.000
    N1921    N        0.31052    0.59483    0.51168    1.000
    Si1922   Si       0.31089    0.52430    0.59514    1.000
    N1923    N        0.28547    0.62676    0.56729    1.000
    Si1924   Si       0.31106    0.70695    0.53024    1.000
    N1925    N        0.29267    0.73792    0.50608    1.000
    N1926    N        0.32234    0.67678    0.49900    1.000
    Si1927   Si       0.28637    0.66487    0.58999    1.000
    N1928    N        0.28278    0.69760    0.56117    1.000
    N1929    N        0.28533    0.59949    0.62943    1.000
    N1930    N        0.31204    0.57164    0.69121    1.000
    N1931    N        0.31904    0.53599    0.63678    1.000
    Si1932   Si       0.29219    0.56385    0.65425    1.000
    Si1933   Si       0.28739    0.55559    0.72440    1.000
    Si1934   Si       0.33605    0.65761    0.71405    1.000
    N1935    N        0.31563    0.67491    0.62137    1.000
    N1936    N        0.29413    0.66268    0.72720    1.000
    Si1937   Si       0.29966    0.71127    0.63991    1.000
    N1938    N        0.28744    0.74452    0.72862    1.000
    Si1939   Si       0.31159    0.72214    0.70022    1.000
    N1940    N        0.32050    0.74359    0.66233    1.000
    Si1941   Si       0.31874    0.53775    0.79338    1.000
    N1942    N        0.29692    0.62843    0.79357    1.000
    N1943    N        0.31904    0.54204    0.75135    1.000
    Si1944   Si       0.31175    0.62843    0.83758    1.000
    N1945    N        0.28543    0.56061    0.81252    1.000
    Si1946   Si       0.30473    0.73530    0.76960    1.000
    N1947    N        0.31296    0.66979    0.84770    1.000
    Si1948   Si       0.30950    0.65988    0.76754    1.000
    N1949    N        0.29494    0.69722    0.78477    1.000
    N1950    N        0.31571    0.55213    0.88140    1.000
    Si1951   Si       0.29653    0.59979    0.95309    1.000
    N1952    N        0.33738    0.59411    0.94026    1.000
    N1953    N        0.28568    0.56599    0.97742    1.000
    N1954    N        0.31765    0.50759    0.99242    1.000
    N1955    N        0.28562    0.68980    0.92368    1.000
    N1956    N        0.29651    0.75085    0.92301    1.000
    N1957    N        0.28867    0.64048    0.97348    1.000
    Si1958   Si       0.28357    0.72160    0.95355    1.000
    N1959    N        0.30965    0.70788    0.98519    1.000
    Si1960   Si       0.32373    0.66468    0.98193    1.000
    Si1961   Si       0.30171    0.71607    0.89277    1.000
    N1962    N        0.30782    0.78733    0.07497    1.000
    N1963    N        0.30469    0.85839    0.07955    1.000
    N1964    N        0.31044    0.83979    0.00789    1.000
    Si1965   Si       0.33039    0.85117    0.04577    1.000
    N1966    N        0.33227    0.77311    0.01057    1.000
    Si1967   Si       0.29067    0.81997    0.09576    1.000
    Si1968   Si       0.30324    0.89750    0.09720    1.000
    N1969    N        0.31203    0.93036    0.07038    1.000
    Si1970   Si       0.32356    0.92207    0.03064    1.000
    Si1971   Si       0.29281    0.96849    0.07846    1.000
    N1972    N        0.31719    0.00328    0.06838    1.000
    N1973    N        0.28954    0.90652    0.00765    1.000
    N1974    N        0.29258    0.80546    0.21095    1.000
    Si1975   Si       0.31725    0.80051    0.17512    1.000
    N1976    N        0.29327    0.81143    0.14047    1.000
    N1977    N        0.30566    0.88348    0.19035    1.000
    N1978    N        0.28275    0.96947    0.11923    1.000
    Si1979   Si       0.31391    0.98386    0.15194    1.000
    N1980    N        0.34153    0.95196    0.24326    1.000
    N1981    N        0.33201    0.90263    0.12861    1.000
    N1982    N        0.32161    0.94875    0.17663    1.000
    Si1983   Si       0.29856    0.91382    0.16018    1.000
    N1984    N        0.31278    0.78780    0.27978    1.000
    N1985    N        0.32948    0.84089    0.32591    1.000
    Si1986   Si       0.29871    0.81856    0.30681    1.000
    Si1987   Si       0.30939    0.82776    0.36594    1.000
    Si1988   Si       0.27934    0.80036    0.25097    1.000
    Si1989   Si       0.32549    0.97903    0.27363    1.000
    Si1990   Si       0.32801    0.93522    0.32440    1.000
    N1991    N        0.29166    0.91056    0.32878    1.000
    N1992    N        0.29154    0.90344    0.25075    1.000
    Si1993   Si       0.33553    0.91116    0.25362    1.000
    N1994    N        0.28901    0.96112    0.28636    1.000
    N1995    N        0.32472    0.79121    0.38443    1.000
    N1996    N        0.30200    0.86360    0.38729    1.000
    Si1997   Si       0.31987    0.79069    0.42723    1.000
    N1998    N        0.30438    0.82771    0.44441    1.000
    Si1999   Si       0.32492    0.85875    0.42508    1.000
    N2000    N        0.28769    0.76251    0.43723    1.000
    N2001    N        0.32555    0.89120    0.45203    1.000
    Si2002   Si       0.28448    0.89904    0.36974    1.000
    Si2003   Si       0.29764    0.92566    0.44750    1.000
    N2004    N        0.28760    0.93364    0.39802    1.000
    N2005    N        0.28935    0.99928    0.47676    1.000
    N2006    N        0.33681    0.95563    0.43711    1.000
    N2007    N        0.32037    0.99677    0.37592    1.000
    Si2008   Si       0.32449    0.95862    0.39626    1.000
    Si2009   Si       0.32148    0.81183    0.58536    1.000
    N2010    N        0.31253    0.77301    0.56503    1.000
    N2011    N        0.30957    0.85332    0.57057    1.000
    Si2012   Si       0.30125    0.85102    0.52721    1.000
    N2013    N        0.29154    0.80902    0.51365    1.000
    N2014    N        0.33840    0.87463    0.51924    1.000
    Si2015   Si       0.28229    0.77215    0.53274    1.000
    Si2016   Si       0.30528    0.88144    0.60282    1.000
    N2017    N        0.29858    0.98164    0.54579    1.000
    N2018    N        0.31884    0.91963    0.58764    1.000
    Si2019   Si       0.29016    0.95258    0.57646    1.000
    N2020    N        0.28992    0.97623    0.61287    1.000
    N2021    N        0.31670    0.81020    0.62959    1.000
    N2022    N        0.32559    0.87247    0.64371    1.000
    Si2023   Si       0.30925    0.83619    0.66380    1.000
    Si2024   Si       0.31699    0.84648    0.73546    1.000
    N2025    N        0.32883    0.82559    0.70022    1.000
    Si2026   Si       0.33919    0.77674    0.64253    1.000
    N2027    N        0.28898    0.87930    0.72564    1.000
    N2028    N        0.29951    0.94768    0.73546    1.000
    N2029    N        0.31783    0.97462    0.67471    1.000
    Si2030   Si       0.30478    0.98647    0.71510    1.000
    Si2031   Si       0.30390    0.91566    0.70565    1.000
    N2032    N        0.34045    0.00632    0.73509    1.000
    Si2033   Si       0.31469    0.80148    0.79484    1.000
    N2034    N        0.30511    0.81857    0.83421    1.000
    N2035    N        0.29273    0.82486    0.76461    1.000
    Si2036   Si       0.33422    0.82272    0.86225    1.000
    N2037    N        0.29408    0.76375    0.79949    1.000
    N2038    N        0.32473    0.95965    0.80405    1.000
    Si2039   Si       0.30327    0.94281    0.83920    1.000
    N2040    N        0.31994    0.90433    0.85488    1.000
    Si2041   Si       0.29271    0.94943    0.77665    1.000
    N2042    N        0.31910    0.85068    0.89286    1.000
    N2043    N        0.32567    0.81004    0.94780    1.000
    Si2044   Si       0.29881    0.87217    0.98212    1.000
    Si2045   Si       0.33258    0.77524    0.92339    1.000
    Si2046   Si       0.30763    0.80239    0.98784    1.000
    Si2047   Si       0.29239    0.88067    0.87978    1.000
    N2048    N        0.34408    0.78493    0.88300    1.000
    Si2049   Si       0.33939    0.85021    0.93148    1.000
    N2050    N        0.33205    0.88471    0.95657    1.000
    N2051    N        0.29911    0.00397    0.99311    1.000
    Si2052   Si       0.32683    0.98098    0.97051    1.000
    N2053    N        0.30934    0.96686    0.93268    1.000
    Si2054   Si       0.32436    0.98568    0.89726    1.000
    N2055    N        0.29200    0.96751    0.87310    1.000
    N2056    N        0.38670    0.03758    0.08990    1.000
    N2057    N        0.37610    0.09760    0.04877    1.000
    N2058    N        0.35848    0.01790    0.02007    1.000
    Si2059   Si       0.36638    0.12683    0.01341    1.000
    N2060    N        0.36599    0.16913    0.02311    1.000
    Si2061   Si       0.36804    0.17870    0.06554    1.000
    N2062    N        0.36388    0.21891    0.08406    1.000
    Si2063   Si       0.39317    0.24391    0.06303    1.000
    N2064    N        0.39983    0.22440    0.02287    1.000
    N2065    N        0.34073    0.12159    0.16994    1.000
    N2066    N        0.39056    0.12161    0.22423    1.000
    Si2067   Si       0.36266    0.02424    0.23258    1.000
    Si2068   Si       0.37073    0.02613    0.15848    1.000
    Si2069   Si       0.36619    0.09631    0.19476    1.000
    N2070    N        0.36160    0.06630    0.15975    1.000
    N2071    N        0.37314    0.06558    0.22673    1.000
    N2072    N        0.39182    0.24229    0.18711    1.000
    N2073    N        0.37996    0.19816    0.23938    1.000
    Si2074   Si       0.39050    0.20328    0.16878    1.000
    Si2075   Si       0.39690    0.23643    0.22953    1.000
    N2076    N        0.34976    0.19138    0.15572    1.000
    Si2077   Si       0.38086    0.09580    0.25982    1.000
    Si2078   Si       0.38986    0.04528    0.34588    1.000
    N2079    N        0.35316    0.04025    0.32251    1.000
    N2080    N        0.38948    0.11324    0.30055    1.000
    Si2081   Si       0.35287    0.13559    0.31193    1.000
    N2082    N        0.37011    0.16574    0.33775    1.000
    Si2083   Si       0.39871    0.19958    0.34131    1.000
    N2084    N        0.36078    0.01166    0.47855    1.000
    Si2085   Si       0.39482    0.08368    0.40892    1.000
    N2086    N        0.36926    0.07091    0.37728    1.000
    Si2087   Si       0.39251    0.04305    0.47574    1.000
    N2088    N        0.37599    0.07074    0.44711    1.000
    Si2089   Si       0.37377    0.10830    0.49782    1.000
    Si2090   Si       0.39307    0.22334    0.41502    1.000
    N2091    N        0.34665    0.15830    0.44648    1.000
    N2092    N        0.36641    0.24123    0.44340    1.000
    N2093    N        0.37347    0.21083    0.37779    1.000
    Si2094   Si       0.38810    0.15178    0.43869    1.000
    Si2095   Si       0.37091    0.05997    0.55402    1.000
    N2096    N        0.35706    0.02206    0.56720    1.000
    N2097    N        0.39075    0.07148    0.51365    1.000
    Si2098   Si       0.34959    0.13349    0.56294    1.000
    N2099    N        0.33986    0.09114    0.55398    1.000
    N2100    N        0.38536    0.13367    0.58822    1.000
    N2101    N        0.37715    0.19806    0.57258    1.000
    Si2102   Si       0.37882    0.18757    0.52960    1.000
    N2103    N        0.36178    0.14711    0.52469    1.000
    Si2104   Si       0.34106    0.21691    0.58836    1.000
    N2105    N        0.35345    0.19961    0.49750    1.000
    Si2106   Si       0.38827    0.03929    0.64760    1.000
    Si2107   Si       0.38084    0.07734    0.71424    1.000
    N2108    N        0.37955    0.04208    0.68991    1.000
    N2109    N        0.37314    0.07841    0.63112    1.000
    N2110    N        0.37047    0.11486    0.69257    1.000
    Si2111   Si       0.34636    0.10188    0.65777    1.000
    N2112    N        0.34256    0.07498    0.73620    1.000
    N2113    N        0.38757    0.23562    0.68741    1.000
    Si2114   Si       0.38160    0.15169    0.71021    1.000
    N2115    N        0.39039    0.18171    0.63780    1.000
    Si2116   Si       0.35000    0.17747    0.65325    1.000
    Si2117   Si       0.35899    0.21972    0.71720    1.000
    N2118    N        0.35071    0.18144    0.69670    1.000
    N2119    N        0.36815    0.07358    0.84822    1.000
    N2120    N        0.37315    0.04456    0.78504    1.000
    Si2121   Si       0.37365    0.08190    0.80694    1.000
    N2122    N        0.33991    0.10896    0.80061    1.000
    Si2123   Si       0.38111    0.16444    0.85572    1.000
    Si2124   Si       0.35846    0.20957    0.79217    1.000
    N2125    N        0.38719    0.19410    0.82524    1.000
    N2126    N        0.37709    0.21928    0.75583    1.000
    N2127    N        0.38128    0.14230    0.75271    1.000
    N2128    N        0.34320    0.14327    0.85888    1.000
    N2129    N        0.34147    0.24363    0.81536    1.000
    Si2130   Si       0.34090    0.14036    0.77140    1.000
    N2131    N        0.36434    0.12295    0.96802    1.000
    N2132    N        0.37788    0.07405    0.91805    1.000
    Si2133   Si       0.34761    0.09143    0.94254    1.000
    Si2134   Si       0.36769    0.03881    0.98323    1.000
    Si2135   Si       0.37059    0.04856    0.88356    1.000
    N2136    N        0.34330    0.25657    0.88718    1.000
    N2137    N        0.39288    0.18310    0.96419    1.000
    N2138    N        0.37114    0.18137    0.89757    1.000
    N2139    N        0.34024    0.22888    0.98438    1.000
    Si2140   Si       0.37144    0.20281    0.99669    1.000
    N2141    N        0.38336    0.34265    0.10783    1.000
    N2142    N        0.36297    0.34764    0.03724    1.000
    Si2143   Si       0.37673    0.30820    0.02670    1.000
    N2144    N        0.38844    0.28668    0.06524    1.000
    Si2145   Si       0.35128    0.35302    0.07924    1.000
    Si2146   Si       0.34837    0.37022    0.00361    1.000
    Si2147   Si       0.37682    0.42002    0.09025    1.000
    N2148    N        0.38563    0.46301    0.10361    1.000
    Si2149   Si       0.38905    0.49724    0.01784    1.000
    Si2150   Si       0.36229    0.49651    0.08293    1.000
    N2151    N        0.35306    0.48327    0.04095    1.000
    N2152    N        0.35998    0.40936    0.00057    1.000
    Si2153   Si       0.39893    0.42110    0.01596    1.000
    N2154    N        0.34358    0.39483    0.08256    1.000
    Si2155   Si       0.34556    0.34023    0.20366    1.000
    N2156    N        0.36960    0.36973    0.18420    1.000
    Si2157   Si       0.37455    0.27264    0.16148    1.000
    Si2158   Si       0.39023    0.36722    0.14231    1.000
    N2159    N        0.34914    0.30167    0.18462    1.000
    N2160    N        0.36125    0.33975    0.24560    1.000
    Si2161   Si       0.39641    0.42990    0.24467    1.000
    N2162    N        0.39731    0.40755    0.12817    1.000
    N2163    N        0.37418    0.45092    0.18048    1.000
    Si2164   Si       0.37362    0.49057    0.19926    1.000
    N2165    N        0.35815    0.40892    0.23502    1.000
    Si2166   Si       0.35485    0.41388    0.19196    1.000
    Si2167   Si       0.39863    0.44771    0.14440    1.000
    N2168    N        0.38591    0.47279    0.24470    1.000
    N2169    N        0.38439    0.26752    0.25626    1.000
    N2170    N        0.36040    0.34305    0.35968    1.000
    N2171    N        0.37641    0.26868    0.33911    1.000
    Si2172   Si       0.34927    0.37879    0.26419    1.000
    Si2173   Si       0.39459    0.30979    0.25578    1.000
    Si2174   Si       0.39584    0.26333    0.29993    1.000
    N2175    N        0.36850    0.38143    0.30331    1.000
    N2176    N        0.40090    0.42394    0.34642    1.000
    Si2177   Si       0.35019    0.49623    0.25990    1.000
    N2178    N        0.35859    0.48553    0.32648    1.000
    Si2179   Si       0.39140    0.46721    0.34802    1.000
    N2180    N        0.34356    0.35381    0.43025    1.000
    Si2181   Si       0.34720    0.27261    0.42111    1.000
    Si2182   Si       0.35215    0.32929    0.46703    1.000
    Si2183   Si       0.37415    0.34300    0.40032    1.000
    N2184    N        0.37537    0.29892    0.40193    1.000
    N2185    N        0.39127    0.31350    0.48620    1.000
    N2186    N        0.37908    0.46520    0.39069    1.000
    N2187    N        0.39404    0.41433    0.42910    1.000
    Si2188   Si       0.38432    0.42224    0.38786    1.000
    N2189    N        0.34556    0.40451    0.38212    1.000
    Si2190   Si       0.37938    0.49700    0.42105    1.000
    N2191    N        0.38986    0.48180    0.46054    1.000
    Si2192   Si       0.38088    0.44071    0.46174    1.000
    N2193    N        0.37041    0.41800    0.49760    1.000
    Si2194   Si       0.36884    0.29350    0.59490    1.000
    Si2195   Si       0.36477    0.35045    0.53580    1.000
    N2196    N        0.37285    0.31065    0.55389    1.000
    Si2197   Si       0.37881    0.28453    0.51767    1.000
    N2198    N        0.34862    0.37366    0.56753    1.000
    N2199    N        0.35001    0.32308    0.62047    1.000
    N2200    N        0.34320    0.26064    0.58593    1.000
    Si2201   Si       0.37238    0.40263    0.59137    1.000
    N2202    N        0.37308    0.44196    0.57875    1.000
    Si2203   Si       0.35610    0.49660    0.53317    1.000
    Si2204   Si       0.35551    0.47150    0.60585    1.000
    N2205    N        0.39650    0.48157    0.52684    1.000
    Si2206   Si       0.39055    0.27812    0.69155    1.000
    N2207    N        0.35373    0.35549    0.68630    1.000
    N2208    N        0.34870    0.28935    0.69016    1.000
    Si2209   Si       0.39778    0.35215    0.68639    1.000
    N2210    N        0.36663    0.42944    0.68508    1.000
    N2211    N        0.34697    0.39253    0.62569    1.000
    N2212    N        0.38104    0.49815    0.63003    1.000
    Si2213   Si       0.37000    0.42642    0.72875    1.000
    N2214    N        0.34085    0.39806    0.74197    1.000
    N2215    N        0.35237    0.30679    0.83851    1.000
    Si2216   Si       0.38703    0.35728    0.80832    1.000
    Si2217   Si       0.35876    0.26604    0.84805    1.000
    N2218    N        0.34808    0.30289    0.75734    1.000
    Si2219   Si       0.38995    0.31569    0.75031    1.000
    N2220    N        0.39025    0.36154    0.85222    1.000
    N2221    N        0.34451    0.35883    0.79679    1.000
    Si2222   Si       0.36885    0.33017    0.87185    1.000
    N2223    N        0.38380    0.43059    0.84766    1.000
    Si2224   Si       0.38722    0.43318    0.80363    1.000
    N2225    N        0.36298    0.46005    0.75339    1.000
    Si2226   Si       0.34050    0.43714    0.84951    1.000
    N2227    N        0.39198    0.30070    0.89675    1.000
    Si2228   Si       0.36640    0.27053    0.92012    1.000
    N2229    N        0.36769    0.34869    0.97161    1.000
    N2230    N        0.34669    0.34807    0.90431    1.000
    N2231    N        0.34148    0.28749    0.94824    1.000
    N2232    N        0.37999    0.40882    0.90956    1.000
    N2233    N        0.34393    0.46114    0.94381    1.000
    Si2234   Si       0.36371    0.48062    0.90780    1.000
    N2235    N        0.37008    0.54061    0.08859    1.000
    Si2236   Si       0.38597    0.57034    0.99995    1.000
    N2237    N        0.34689    0.60848    0.07511    1.000
    N2238    N        0.34428    0.57724    0.00812    1.000
    N2239    N        0.37034    0.75342    0.06959    1.000
    Si2240   Si       0.37371    0.63930    0.09250    1.000
    Si2241   Si       0.38254    0.67377    0.02998    1.000
    N2242    N        0.36761    0.67786    0.07217    1.000
    N2243    N        0.37946    0.71315    0.00846    1.000
    Si2244   Si       0.34735    0.71548    0.07886    1.000
    N2245    N        0.34809    0.64948    0.01459    1.000
    N2246    N        0.36572    0.52353    0.16199    1.000
    Si2247   Si       0.38819    0.62666    0.17092    1.000
    N2248    N        0.38332    0.56469    0.21768    1.000
    N2249    N        0.35566    0.62527    0.19918    1.000
    N2250    N        0.39765    0.58641    0.15417    1.000
    Si2251   Si       0.39946    0.54701    0.18022    1.000
    Si2252   Si       0.34567    0.58641    0.21987    1.000
    N2253    N        0.39457    0.71766    0.15882    1.000
    N2254    N        0.38251    0.67866    0.23187    1.000
    N2255    N        0.37121    0.64978    0.13589    1.000
    Si2256   Si       0.37816    0.75614    0.16810    1.000
    Si2257   Si       0.36466    0.68969    0.14673    1.000
    Si2258   Si       0.34522    0.66602    0.21264    1.000
    N2259    N        0.38610    0.54624    0.34886    1.000
    N2260    N        0.36599    0.53208    0.27687    1.000
    Si2261   Si       0.36467    0.61600    0.28949    1.000
    Si2262   Si       0.35790    0.53017    0.32087    1.000
    N2263    N        0.35933    0.61116    0.33346    1.000
    Si2264   Si       0.39517    0.55810    0.26021    1.000
    Si2265   Si       0.37302    0.58492    0.36552    1.000
    N2266    N        0.40274    0.59572    0.28189    1.000
    Si2267   Si       0.37567    0.69596    0.27166    1.000
    N2268    N        0.36458    0.66040    0.29676    1.000
    Si2269   Si       0.35487    0.65454    0.34011    1.000
    N2270    N        0.38683    0.66530    0.36636    1.000
    N2271    N        0.34546    0.72629    0.26916    1.000
    N2272    N        0.34689    0.58130    0.39904    1.000
    N2273    N        0.35910    0.57489    0.46741    1.000
    N2274    N        0.34087    0.72297    0.46222    1.000
    N2275    N        0.39102    0.69226    0.44430    1.000
    N2276    N        0.37467    0.72967    0.39554    1.000
    Si2277   Si       0.36171    0.68375    0.47855    1.000
    Si2278   Si       0.39705    0.68965    0.40134    1.000
    Si2279   Si       0.37413    0.73898    0.43881    1.000
    N2280    N        0.36861    0.63963    0.48570    1.000
    N2281    N        0.35545    0.53659    0.52075    1.000
    Si2282   Si       0.38949    0.62474    0.58894    1.000
    N2283    N        0.34720    0.61900    0.60124    1.000
    Si2284   Si       0.38512    0.55796    0.50060    1.000
    N2285    N        0.39291    0.64891    0.55091    1.000
    N2286    N        0.34702    0.71521    0.55214    1.000
    Si2287   Si       0.38354    0.69310    0.54631    1.000
    N2288    N        0.39398    0.69716    0.50557    1.000
    Si2289   Si       0.35367    0.75652    0.56613    1.000
    Si2290   Si       0.35117    0.59015    0.68604    1.000
    N2291    N        0.37831    0.56836    0.65608    1.000
    N2292    N        0.37081    0.57889    0.72237    1.000
    Si2293   Si       0.35994    0.52793    0.65398    1.000
    Si2294   Si       0.35774    0.53946    0.73286    1.000
    N2295    N        0.35560    0.51699    0.69562    1.000
    N2296    N        0.34391    0.63334    0.67668    1.000
    N2297    N        0.39278    0.65470    0.62556    1.000
    N2298    N        0.34524    0.69959    0.71172    1.000
    Si2299   Si       0.34814    0.64624    0.63520    1.000
    Si2300   Si       0.37516    0.72070    0.73870    1.000
    N2301    N        0.40495    0.72456    0.64418    1.000
    N2302    N        0.38217    0.52328    0.76408    1.000
    Si2303   Si       0.38572    0.62495    0.86669    1.000
    N2304    N        0.35254    0.55340    0.81571    1.000
    Si2305   Si       0.39155    0.54522    0.80007    1.000
    Si2306   Si       0.34649    0.57029    0.85565    1.000
    N2307    N        0.34765    0.61231    0.85054    1.000
    N2308    N        0.35936    0.73246    0.83232    1.000
    Si2309   Si       0.39088    0.64959    0.76849    1.000
    N2310    N        0.38386    0.66586    0.85096    1.000
    Si2311   Si       0.35198    0.69459    0.85321    1.000
    N2312    N        0.39310    0.69219    0.76448    1.000
    N2313    N        0.34847    0.74143    0.76674    1.000
    N2314    N        0.34878    0.64592    0.75479    1.000
    N2315    N        0.37752    0.56522    0.88571    1.000
    Si2316   Si       0.36902    0.62365    0.94338    1.000
    N2317    N        0.39906    0.60233    0.97228    1.000
    N2318    N        0.39474    0.62725    0.90944    1.000
    N2319    N        0.34881    0.51857    0.92454    1.000
    Si2320   Si       0.34426    0.55994    0.91498    1.000
    Si2321   Si       0.39895    0.74913    0.94177    1.000
    Si2322   Si       0.34622    0.73340    0.99220    1.000
    Si2323   Si       0.36383    0.70176    0.93221    1.000
    N2324    N        0.35552    0.74243    0.94965    1.000
    N2325    N        0.35314    0.66276    0.94891    1.000
    N2326    N        0.34558    0.71347    0.89225    1.000
    N2327    N        0.36324    0.82257    0.05006    1.000
    N2328    N        0.38194    0.85082    0.11303    1.000
    Si2329   Si       0.39643    0.83722    0.07415    1.000
    Si2330   Si       0.34480    0.78306    0.05091    1.000
    Si2331   Si       0.40122    0.76825    0.09814    1.000
    Si2332   Si       0.39492    0.89065    0.02647    1.000
    N2333    N        0.35180    0.88907    0.03530    1.000
    N2334    N        0.38295    0.97307    0.06919    1.000
    Si2335   Si       0.37532    0.97673    0.02259    1.000
    Si2336   Si       0.35653    0.00575    0.08578    1.000
    N2337    N        0.34714    0.94979    0.00183    1.000
    N2338    N        0.40195    0.77039    0.20058    1.000
    N2339    N        0.35411    0.87862    0.23424    1.000
    N2340    N        0.38340    0.78178    0.13533    1.000
    Si2341   Si       0.38637    0.82566    0.14867    1.000
    N2342    N        0.35012    0.82902    0.17557    1.000
    Si2343   Si       0.34673    0.87054    0.19232    1.000
    N2344    N        0.34817    0.99982    0.12969    1.000
    N2345    N        0.39191    0.94791    0.20329    1.000
    Si2346   Si       0.35137    0.96127    0.20299    1.000
    N2347    N        0.35454    0.00528    0.19420    1.000
    N2348    N        0.38161    0.88672    0.17186    1.000
    Si2349   Si       0.37319    0.88953    0.12928    1.000
    N2350    N        0.38846    0.77764    0.29611    1.000
    Si2351   Si       0.36007    0.87107    0.31608    1.000
    N2352    N        0.39128    0.85622    0.29109    1.000
    Si2353   Si       0.39277    0.86367    0.24802    1.000
    N2354    N        0.38800    0.88043    0.34790    1.000
    Si2355   Si       0.34714    0.76300    0.29473    1.000
    N2356    N        0.34356    0.97341    0.31172    1.000
    Si2357   Si       0.34881    0.00172    0.34357    1.000
    N2358    N        0.38927    0.00458    0.35977    1.000
    N2359    N        0.34493    0.93644    0.36498    1.000
    N2360    N        0.34556    0.90892    0.29575    1.000
    N2361    N        0.40136    0.00933    0.24872    1.000
    Si2362   Si       0.35823    0.76219    0.37073    1.000
    N2363    N        0.39325    0.79032    0.37362    1.000
    Si2364   Si       0.39534    0.86639    0.38927    1.000
    N2365    N        0.36295    0.84334    0.40785    1.000
    N2366    N        0.36193    0.78103    0.43743    1.000
    Si2367   Si       0.38334    0.80677    0.41171    1.000
    Si2368   Si       0.38265    0.92065    0.36691    1.000
    N2369    N        0.38809    0.90582    0.40685    1.000
    Si2370   Si       0.36510    0.96961    0.46776    1.000
    Si2371   Si       0.35005    0.90010    0.48634    1.000
    N2372    N        0.39097    0.88836    0.47303    1.000
    N2373    N        0.36058    0.82047    0.56971    1.000
    Si2374   Si       0.35909    0.86472    0.55708    1.000
    N2375    N        0.39260    0.76953    0.54934    1.000
    Si2376   Si       0.39664    0.81398    0.54460    1.000
    N2377    N        0.39847    0.81584    0.49923    1.000
    N2378    N        0.35978    0.76064    0.60789    1.000
    N2379    N        0.38181    0.88589    0.59196    1.000
    Si2380   Si       0.39268    0.94978    0.53128    1.000
    Si2381   Si       0.37983    0.99305    0.58881    1.000
    Si2382   Si       0.36116    0.92324    0.59671    1.000
    N2383    N        0.37606    0.95308    0.57143    1.000
    N2384    N        0.36055    0.94201    0.50059    1.000
    Si2385   Si       0.37395    0.81948    0.69410    1.000
    N2386    N        0.37447    0.78807    0.66471    1.000
    N2387    N        0.38443    0.85937    0.68011    1.000
    N2388    N        0.39435    0.81075    0.73027    1.000
    Si2389   Si       0.39634    0.76448    0.63176    1.000
    Si2390   Si       0.36724    0.90155    0.73915    1.000
    Si2391   Si       0.35878    0.96985    0.65670    1.000
    N2392    N        0.37244    0.00197    0.63123    1.000
    N2393    N        0.34591    0.90853    0.70280    1.000
    Si2394   Si       0.37815    0.00503    0.71462    1.000
    N2395    N        0.36296    0.93131    0.63979    1.000
    Si2396   Si       0.36052    0.89231    0.66277    1.000
    N2397    N        0.38708    0.97076    0.69049    1.000
    N2398    N        0.36768    0.84607    0.84248    1.000
    N2399    N        0.35641    0.80175    0.78773    1.000
    Si2400   Si       0.38040    0.83159    0.76581    1.000
    N2401    N        0.39216    0.78423    0.83501    1.000
    N2402    N        0.35418    0.86178    0.75283    1.000
    Si2403   Si       0.37304    0.76069    0.79969    1.000
    Si2404   Si       0.37341    0.75826    0.86645    1.000
    Si2405   Si       0.35858    0.88733    0.84863    1.000
    Si2406   Si       0.36685    0.95123    0.80081    1.000
    N2407    N        0.37880    0.91607    0.82433    1.000
    N2408    N        0.37663    0.93755    0.76199    1.000
    N2409    N        0.39066    0.98508    0.81289    1.000
    Si2410   Si       0.39442    0.98270    0.85726    1.000
    N2411    N        0.38346    0.84532    0.93018    1.000
    N2412    N        0.40219    0.76263    0.89980    1.000
    Si2413   Si       0.38378    0.93515    0.89693    1.000
    N2414    N        0.37929    0.94134    0.94085    1.000
    N2415    N        0.38012    0.89433    0.88608    1.000
    N2416    N        0.39450    0.88903    0.98274    1.000
    N2417    N        0.35940    0.96723    0.87888    1.000
    Si2418   Si       0.36077    0.91641    0.97112    1.000
    N2419    N        0.36255    0.00488    0.95548    1.000
    N2420    N        0.42783    0.08206    0.09797    1.000
    N2421    N        0.43377    0.05861    0.03501    1.000
    Si2422   Si       0.43449    0.08644    0.00128    1.000
    N2423    N        0.41761    0.12753    0.00648    1.000
    Si2424   Si       0.42688    0.04246    0.11737    1.000
    Si2425   Si       0.40444    0.06797    0.06473    1.000
    Si2426   Si       0.45777    0.11374    0.09730    1.000
    N2427    N        0.45853    0.02028    0.09735    1.000
    N2428    N        0.43322    0.24355    0.08460    1.000
    Si2429   Si       0.43110    0.15299    0.03978    1.000
    Si2430   Si       0.43409    0.18063    0.10701    1.000
    Si2431   Si       0.44116    0.22381    0.01155    1.000
    N2432    N        0.40875    0.16806    0.07367    1.000
    N2433    N        0.45654    0.18855    0.03119    1.000
    Si2434   Si       0.42848    0.09651    0.22200    1.000
    Si2435   Si       0.44910    0.02576    0.17955    1.000
    N2436    N        0.41432    0.02083    0.15297    1.000
    N2437    N        0.44376    0.05622    0.20961    1.000
    N2438    N        0.45467    0.11538    0.19305    1.000
    N2439    N        0.41441    0.17215    0.18818    1.000
    N2440    N        0.44313    0.14207    0.12788    1.000
    Si2441   Si       0.40430    0.16282    0.22898    1.000
    Si2442   Si       0.43192    0.24691    0.12890    1.000
    N2443    N        0.41681    0.20817    0.13467    1.000
    Si2444   Si       0.44770    0.15039    0.16883    1.000
    N2445    N        0.43945    0.22970    0.24221    1.000
    N2446    N        0.42470    0.05416    0.32028    1.000
    N2447    N        0.42455    0.08262    0.26249    1.000
    Si2448   Si       0.43084    0.09653    0.30727    1.000
    N2449    N        0.43728    0.10965    0.35241    1.000
    Si2450   Si       0.43349    0.03943    0.24893    1.000
    Si2451   Si       0.43651    0.20486    0.27567    1.000
    N2452    N        0.43386    0.17718    0.34977    1.000
    N2453    N        0.43374    0.16314    0.25878    1.000
    N2454    N        0.40887    0.22174    0.30432    1.000
    N2455    N        0.43210    0.06344    0.40381    1.000
    N2456    N        0.42805    0.02151    0.46062    1.000
    Si2457   Si       0.44665    0.02800    0.42227    1.000
    N2458    N        0.40361    0.12546    0.40802    1.000
    N2459    N        0.40085    0.13141    0.47547    1.000
    Si2460   Si       0.45130    0.18802    0.43824    1.000
    N2461    N        0.41971    0.25296    0.39748    1.000
    N2462    N        0.40948    0.18878    0.43274    1.000
    Si2463   Si       0.43146    0.14415    0.37805    1.000
    Si2464   Si       0.42968    0.07774    0.53435    1.000
    N2465    N        0.44564    0.11789    0.52497    1.000
    N2466    N        0.40879    0.07247    0.57192    1.000
    N2467    N        0.45417    0.04449    0.53010    1.000
    Si2468   Si       0.40451    0.09898    0.60523    1.000
    Si2469   Si       0.44061    0.00447    0.54571    1.000
    N2470    N        0.44707    0.22965    0.57160    1.000
    N2471    N        0.44743    0.16798    0.60004    1.000
    N2472    N        0.42096    0.18631    0.51867    1.000
    Si2473   Si       0.43922    0.22481    0.52696    1.000
    Si2474   Si       0.40330    0.17166    0.59724    1.000
    Si2475   Si       0.43274    0.14973    0.49817    1.000
    N2476    N        0.40848    0.25692    0.53110    1.000
    N2477    N        0.44218    0.10582    0.62653    1.000
    N2478    N        0.43332    0.04085    0.64456    1.000
    N2479    N        0.42078    0.08864    0.73132    1.000
    Si2480   Si       0.41253    0.20491    0.66809    1.000
    N2481    N        0.44254    0.22229    0.64434    1.000
    Si2482   Si       0.45211    0.17869    0.72283    1.000
    N2483    N        0.41774    0.17329    0.69780    1.000
    N2484    N        0.44833    0.22046    0.73841    1.000
    Si2485   Si       0.43989    0.10757    0.83580    1.000
    Si2486   Si       0.41712    0.11997    0.76301    1.000
    N2487    N        0.41444    0.09875    0.80058    1.000
    N2488    N        0.44652    0.07408    0.86172    1.000
    Si2489   Si       0.40643    0.01403    0.78625    1.000
    N2490    N        0.45144    0.01075    0.78567    1.000
    Si2491   Si       0.41795    0.22426    0.82616    1.000
    N2492    N        0.41714    0.14034    0.85370    1.000
    N2493    N        0.42835    0.24978    0.79120    1.000
    N2494    N        0.44913    0.14981    0.75719    1.000
    N2495    N        0.45279    0.20183    0.84266    1.000
    Si2496   Si       0.41261    0.24153    0.74940    1.000
    N2497    N        0.40193    0.25433    0.85263    1.000
    N2498    N        0.40275    0.02006    0.87435    1.000
    Si2499   Si       0.41423    0.07664    0.93823    1.000
    Si2500   Si       0.44138    0.03798    0.88375    1.000
    N2501    N        0.43037    0.11826    0.94011    1.000
    N2502    N        0.44216    0.04771    0.92638    1.000
    N2503    N        0.40293    0.06503    0.97852    1.000
    Si2504   Si       0.44659    0.16944    0.87203    1.000
    Si2505   Si       0.44120    0.25416    0.94280    1.000
    Si2506   Si       0.40486    0.14312    0.96741    1.000
    N2507    N        0.45267    0.21866    0.96842    1.000
    N2508    N        0.43753    0.19104    0.90882    1.000
    Si2509   Si       0.39819    0.20141    0.92394    1.000
    N2510    N        0.39794    0.24422    0.93276    1.000
    N2511    N        0.44762    0.32381    0.08537    1.000
    Si2512   Si       0.45331    0.29566    0.00514    1.000
    Si2513   Si       0.40998    0.30777    0.09793    1.000
    N2514    N        0.41300    0.31101    0.00103    1.000
    N2515    N        0.45724    0.26032    0.02808    1.000
    N2516    N        0.42178    0.38468    0.00549    1.000
    Si2517   Si       0.41995    0.46404    0.07250    1.000
    N2518    N        0.40874    0.50379    0.05672    1.000
    N2519    N        0.40531    0.42756    0.05721    1.000
    Si2520   Si       0.40984    0.36303    0.20276    1.000
    N2521    N        0.42702    0.35936    0.16419    1.000
    N2522    N        0.42300    0.32723    0.22508    1.000
    N2523    N        0.40548    0.28055    0.13354    1.000
    N2524    N        0.41603    0.50509    0.19817    1.000
    N2525    N        0.43764    0.46370    0.14934    1.000
    Si2526   Si       0.42296    0.49548    0.23953    1.000
    Si2527   Si       0.44913    0.50325    0.16741    1.000
    N2528    N        0.42177    0.40045    0.22112    1.000
    N2529    N        0.45651    0.46773    0.24458    1.000
    N2530    N        0.43644    0.36399    0.31524    1.000
    Si2531   Si       0.44586    0.32249    0.32007    1.000
    N2532    N        0.43067    0.31078    0.35862    1.000
    N2533    N        0.41956    0.30157    0.29336    1.000
    N2534    N        0.42832    0.49014    0.35049    1.000
    N2535    N        0.41854    0.42552    0.28196    1.000
    Si2536   Si       0.40843    0.39483    0.30993    1.000
    Si2537   Si       0.45974    0.43726    0.27553    1.000
    N2538    N        0.43344    0.37541    0.47154    1.000
    Si2539   Si       0.44981    0.33467    0.39222    1.000
    N2540    N        0.41428    0.35726    0.40529    1.000
    N2541    N        0.45960    0.30720    0.42447    1.000
    Si2542   Si       0.42631    0.33990    0.49408    1.000
    Si2543   Si       0.40170    0.28341    0.37156    1.000
    Si2544   Si       0.45866    0.44868    0.44849    1.000
    N2545    N        0.42852    0.43855    0.48024    1.000
    Si2546   Si       0.42244    0.48892    0.48983    1.000
    Si2547   Si       0.42776    0.38995    0.43249    1.000
    N2548    N        0.45625    0.49217    0.45303    1.000
    Si2549   Si       0.42781    0.26739    0.56981    1.000
    N2550    N        0.40940    0.28140    0.60724    1.000
    N2551    N        0.40688    0.36439    0.52652    1.000
    N2552    N        0.45165    0.33919    0.61949    1.000
    N2553    N        0.46006    0.29479    0.55740    1.000
    Si2554   Si       0.43250    0.38351    0.55881    1.000
    N2555    N        0.41189    0.38886    0.59766    1.000
    Si2556   Si       0.41034    0.45513    0.55831    1.000
    N2557    N        0.43263    0.48146    0.58321    1.000
    N2558    N        0.43112    0.42098    0.53914    1.000
    Si2559   Si       0.41168    0.40254    0.50051    1.000
    Si2560   Si       0.46012    0.50350    0.55580    1.000
    N2561    N        0.40761    0.31248    0.67082    1.000
    Si2562   Si       0.43295    0.30443    0.63569    1.000
    Si2563   Si       0.43859    0.37836    0.63046    1.000
    N2564    N        0.40707    0.27926    0.73080    1.000
    N2565    N        0.40337    0.35219    0.73154    1.000
    N2566    N        0.41743    0.38526    0.66767    1.000
    N2567    N        0.43541    0.49125    0.73106    1.000
    Si2568   Si       0.42430    0.49077    0.62672    1.000
    N2569    N        0.42970    0.45540    0.65388    1.000
    N2570    N        0.41533    0.42267    0.72740    1.000
    Si2571   Si       0.40994    0.42763    0.68137    1.000
    Si2572   Si       0.45202    0.45146    0.73156    1.000
    Si2573   Si       0.43951    0.29200    0.80226    1.000
    N2574    N        0.44634    0.30385    0.84247    1.000
    N2575    N        0.40868    0.32110    0.78988    1.000
    Si2576   Si       0.42218    0.38537    0.75211    1.000
    N2577    N        0.41493    0.46528    0.79297    1.000
    Si2578   Si       0.40142    0.39869    0.87133    1.000
    N2579    N        0.40071    0.39484    0.78939    1.000
    Si2580   Si       0.39904    0.48504    0.75876    1.000
    Si2581   Si       0.42505    0.28464    0.87481    1.000
    N2582    N        0.43882    0.36624    0.94795    1.000
    Si2583   Si       0.41062    0.34975    0.97965    1.000
    N2584    N        0.45178    0.26358    0.90265    1.000
    Si2585   Si       0.45382    0.39538    0.97854    1.000
    N2586    N        0.44485    0.42896    0.95282    1.000
    N2587    N        0.44127    0.40909    0.88789    1.000
    N2588    N        0.40579    0.47068    0.90740    1.000
    Si2589   Si       0.41614    0.43020    0.92082    1.000
    Si2590   Si       0.44148    0.49542    0.91062    1.000
    Si2591   Si       0.44369    0.46202    0.97945    1.000
    N2592    N        0.44819    0.49509    0.95430    1.000
    N2593    N        0.40495    0.46149    0.99853    1.000
    Si2594   Si       0.42498    0.61400    0.04069    1.000
    N2595    N        0.44011    0.55948    0.09396    1.000
    Si2596   Si       0.40866    0.54582    0.06918    1.000
    N2597    N        0.45770    0.60508    0.01283    1.000
    N2598    N        0.41499    0.63230    0.08017    1.000
    N2599    N        0.40262    0.57689    0.03986    1.000
    Si2600   Si       0.41957    0.73875    0.01034    1.000
    N2601    N        0.43485    0.74249    0.10771    1.000
    Si2602   Si       0.44440    0.66206    0.09337    1.000
    N2603    N        0.43898    0.69283    0.06143    1.000
    N2604    N        0.41792    0.64982    0.01706    1.000
    Si2605   Si       0.45112    0.67726    0.02237    1.000
    N2606    N        0.44734    0.75424    0.04034    1.000
    Si2607   Si       0.45763    0.72959    0.07391    1.000
    Si2608   Si       0.43557    0.57831    0.13270    1.000
    N2609    N        0.44407    0.54650    0.16309    1.000
    N2610    N        0.46164    0.61189    0.13894    1.000
    N2611    N        0.44946    0.69665    0.22382    1.000
    N2612    N        0.42452    0.63968    0.18986    1.000
    Si2613   Si       0.45534    0.64932    0.15973    1.000
    Si2614   Si       0.43345    0.71908    0.14513    1.000
    N2615    N        0.43982    0.67803    0.13201    1.000
    Si2616   Si       0.42226    0.66337    0.22434    1.000
    N2617    N        0.46580    0.73687    0.16760    1.000
    Si2618   Si       0.43868    0.61669    0.29142    1.000
    N2619    N        0.43227    0.53401    0.25892    1.000
    Si2620   Si       0.41902    0.52862    0.36920    1.000
    N2621    N        0.45519    0.55246    0.36918    1.000
    N2622    N        0.44093    0.64020    0.33015    1.000
    N2623    N        0.44220    0.74846    0.33893    1.000
    N2624    N        0.41508    0.71468    0.28054    1.000
    N2625    N        0.43797    0.65003    0.26303    1.000
    Si2626   Si       0.45046    0.69289    0.26715    1.000
    Si2627   Si       0.42646    0.75328    0.29841    1.000
    N2628    N        0.41056    0.60104    0.38262    1.000
    Si2629   Si       0.43892    0.53174    0.44430    1.000
    N2630    N        0.41793    0.53555    0.48357    1.000
    N2631    N        0.41032    0.52552    0.41100    1.000
    Si2632   Si       0.44921    0.58471    0.39484    1.000
    N2633    N        0.45827    0.56933    0.43536    1.000
    Si2634   Si       0.42186    0.64089    0.37048    1.000
    N2635    N        0.43913    0.63579    0.48339    1.000
    N2636    N        0.43228    0.66243    0.40676    1.000
    Si2637   Si       0.41910    0.71109    0.47571    1.000
    N2638    N        0.41099    0.75220    0.46587    1.000
    Si2639   Si       0.45182    0.65916    0.44798    1.000
    Si2640   Si       0.43815    0.58269    0.55356    1.000
    N2641    N        0.41725    0.59048    0.59249    1.000
    N2642    N        0.40773    0.58771    0.52207    1.000
    Si2643   Si       0.40375    0.63049    0.51177    1.000
    N2644    N        0.46212    0.54648    0.55976    1.000
    N2645    N        0.41194    0.71056    0.57580    1.000
    Si2646   Si       0.41339    0.69377    0.61433    1.000
    Si2647   Si       0.42692    0.75090    0.57126    1.000
    Si2648   Si       0.41906    0.57027    0.63454    1.000
    N2649    N        0.43463    0.60535    0.65565    1.000
    N2650    N        0.43915    0.56666    0.71413    1.000
    N2651    N        0.44034    0.53002    0.63594    1.000
    Si2652   Si       0.40848    0.58822    0.73968    1.000
    Si2653   Si       0.45568    0.52677    0.72225    1.000
    N2654    N        0.41374    0.63012    0.73663    1.000
    Si2655   Si       0.45920    0.59416    0.68974    1.000
    Si2656   Si       0.42629    0.64793    0.65335    1.000
    Si2657   Si       0.44261    0.65861    0.72456    1.000
    N2658    N        0.45088    0.67172    0.62314    1.000
    N2659    N        0.42395    0.67520    0.68631    1.000
    N2660    N        0.40601    0.74166    0.71509    1.000
    Si2661   Si       0.42301    0.71834    0.68217    1.000
    Si2662   Si       0.43765    0.60213    0.81024    1.000
    N2663    N        0.42159    0.59970    0.85095    1.000
    N2664    N        0.40975    0.58038    0.78256    1.000
    N2665    N        0.41388    0.53167    0.83435    1.000
    Si2666   Si       0.41784    0.55777    0.86804    1.000
    Si2667   Si       0.42777    0.71137    0.77896    1.000
    N2668    N        0.43670    0.70720    0.82079    1.000
    Si2669   Si       0.42433    0.66977    0.83627    1.000
    N2670    N        0.41118    0.75190    0.77766    1.000
    N2671    N        0.42071    0.64186    0.80108    1.000
    N2672    N        0.45614    0.68808    0.75255    1.000
    N2673    N        0.44067    0.53768    0.89803    1.000
    Si2674   Si       0.44495    0.53122    0.98121    1.000
    Si2675   Si       0.43427    0.62576    0.98159    1.000
    Si2676   Si       0.43637    0.63589    0.90835    1.000
    N2677    N        0.40318    0.53065    0.99281    1.000
    N2678    N        0.44377    0.65288    0.94940    1.000
    N2679    N        0.44267    0.66350    0.87664    1.000
    Si2680   Si       0.44516    0.69552    0.95132    1.000
    N2681    N        0.40605    0.70782    0.93625    1.000
    N2682    N        0.44409    0.70802    0.99379    1.000
    N2683    N        0.41935    0.86134    0.04648    1.000
    N2684    N        0.42146    0.80448    0.08634    1.000
    Si2685   Si       0.45257    0.85038    0.01994    1.000
    N2686    N        0.45073    0.94953    0.09966    1.000
    N2687    N        0.41609    0.92603    0.03914    1.000
    Si2688   Si       0.43782    0.95539    0.01425    1.000
    Si2689   Si       0.41160    0.94253    0.07784    1.000
    N2690    N        0.45230    0.98679    0.03913    1.000
    N2691    N        0.40173    0.91632    0.11074    1.000
    N2692    N        0.40595    0.97614    0.99541    1.000
    N2693    N        0.41172    0.82644    0.23929    1.000
    Si2694   Si       0.42553    0.80427    0.20713    1.000
    N2695    N        0.42457    0.83011    0.16947    1.000
    Si2696   Si       0.46389    0.84659    0.15756    1.000
    Si2697   Si       0.44300    0.91604    0.12934    1.000
    N2698    N        0.44695    0.98837    0.20163    1.000
    Si2699   Si       0.40928    0.91026    0.19490    1.000
    N2700    N        0.44467    0.91742    0.17184    1.000
    Si2701   Si       0.41749    0.97299    0.22840    1.000
    N2702    N        0.41886    0.89470    0.23379    1.000
    N2703    N        0.43317    0.82286    0.32608    1.000
    Si2704   Si       0.42161    0.86450    0.32233    1.000
    Si2705   Si       0.43307    0.78917    0.35474    1.000
    N2706    N        0.44932    0.78326    0.27685    1.000
    Si2707   Si       0.41509    0.81267    0.28379    1.000
    N2708    N        0.44973    0.89303    0.30092    1.000
    Si2709   Si       0.44855    0.91102    0.26116    1.000
    N2710    N        0.43985    0.95419    0.25928    1.000
    N2711    N        0.44706    0.98974    0.32439    1.000
    Si2712   Si       0.42649    0.98260    0.36186    1.000
    N2713    N        0.42125    0.94023    0.36534    1.000
    N2714    N        0.43748    0.86568    0.38694    1.000
    N2715    N        0.41986    0.81846    0.43357    1.000
    Si2716   Si       0.42067    0.79532    0.47093    1.000
    Si2717   Si       0.45495    0.83265    0.41017    1.000
    N2718    N        0.45390    0.99835    0.39092    1.000
    Si2719   Si       0.44731    0.90970    0.38329    1.000
    N2720    N        0.40537    0.95711    0.45640    1.000
    Si2721   Si       0.43502    0.98170    0.47762    1.000
    Si2722   Si       0.41017    0.91606    0.44335    1.000
    N2723    N        0.44925    0.92076    0.42606    1.000
    N2724    N        0.43109    0.82161    0.57028    1.000
    Si2725   Si       0.42176    0.86532    0.57973    1.000
    N2726    N        0.43358    0.77129    0.61127    1.000
    Si2727   Si       0.45470    0.81260    0.60581    1.000
    Si2728   Si       0.40991    0.85966    0.50006    1.000
    N2729    N        0.45151    0.86965    0.50110    1.000
    N2730    N        0.39913    0.86078    0.54004    1.000
    N2731    N        0.41570    0.98389    0.51784    1.000
    N2732    N        0.42587    0.92415    0.53139    1.000
    N2733    N        0.42421    0.99917    0.58610    1.000
    N2734    N        0.46076    0.88656    0.57211    1.000
    N2735    N        0.43939    0.85112    0.62229    1.000
    N2736    N        0.45649    0.85348    0.69311    1.000
    Si2737   Si       0.41871    0.87360    0.70161    1.000
    Si2738   Si       0.45329    0.87429    0.65523    1.000
    Si2739   Si       0.41913    0.77456    0.74166    1.000
    N2740    N        0.43031    0.90775    0.67541    1.000
    N2741    N        0.41139    0.89452    0.73719    1.000
    Si2742   Si       0.44605    0.00503    0.62328    1.000
    N2743    N        0.44297    0.95354    0.72747    1.000
    Si2744   Si       0.42708    0.95002    0.68653    1.000
    Si2745   Si       0.45050    0.00380    0.74170    1.000
    N2746    N        0.45027    0.97294    0.65591    1.000
    N2747    N        0.40844    0.00646    0.74373    1.000
    N2748    N        0.41526    0.83653    0.79195    1.000
    Si2749   Si       0.45668    0.82836    0.78232    1.000
    N2750    N        0.45823    0.79497    0.75245    1.000
    Si2751   Si       0.40626    0.82598    0.83449    1.000
    N2752    N        0.43617    0.88305    0.85540    1.000
    Si2753   Si       0.42072    0.91744    0.83637    1.000
    N2754    N        0.44075    0.92559    0.79826    1.000
    Si2755   Si       0.41986    0.92995    0.76005    1.000
    N2756    N        0.41354    0.76688    0.97679    1.000
    N2757    N        0.42070    0.82610    0.87698    1.000
    Si2758   Si       0.44700    0.79395    0.97268    1.000
    Si2759   Si       0.41383    0.85955    0.95755    1.000
    Si2760   Si       0.41084    0.86462    0.89321    1.000
    N2761    N        0.43853    0.83434    0.98173    1.000
    Si2762   Si       0.43611    0.78821    0.89294    1.000
    N2763    N        0.43843    0.87549    0.92504    1.000
    N2764    N        0.45879    0.78609    0.93056    1.000
    N2765    N        0.42002    0.94854    0.86918    1.000
    Si2766   Si       0.39933    0.97885    0.95317    1.000
    N2767    N        0.43746    0.97318    0.93248    1.000
    Si2768   Si       0.45430    0.96151    0.89317    1.000
    N2769    N        0.50254    0.04010    0.03708    1.000
    N2770    N        0.49376    0.08849    0.09844    1.000
    Si2771   Si       0.48872    0.04890    0.11185    1.000
    Si2772   Si       0.46222    0.02799    0.02298    1.000
    Si2773   Si       0.51660    0.07363    0.01516    1.000
    N2774    N        0.46529    0.13616    0.06204    1.000
    Si2775   Si       0.48758    0.17496    0.05853    1.000
    N2776    N        0.47439    0.19381    0.09990    1.000
    N2777    N        0.50967    0.22657    0.05064    1.000
    Si2778   Si       0.47193    0.24626    0.06622    1.000
    Si2779   Si       0.47716    0.07895    0.18416    1.000
    N2780    N        0.49451    0.02232    0.18748    1.000
    N2781    N        0.46338    0.05809    0.14882    1.000
    N2782    N        0.51295    0.22048    0.22169    1.000
    N2783    N        0.47990    0.17702    0.17029    1.000
    Si2784   Si       0.48855    0.20610    0.14072    1.000
    Si2785   Si       0.51003    0.18089    0.20153    1.000
    N2786    N        0.47041    0.24530    0.15072    1.000
    N2787    N        0.50367    0.15575    0.23745    1.000
    Si2788   Si       0.47908    0.24685    0.23454    1.000
    N2789    N        0.48131    0.05163    0.35253    1.000
    N2790    N        0.47377    0.11658    0.29590    1.000
    Si2791   Si       0.51118    0.12020    0.31847    1.000
    N2792    N        0.50774    0.01169    0.31482    1.000
    Si2793   Si       0.46272    0.02987    0.31796    1.000
    Si2794   Si       0.51265    0.01826    0.26847    1.000
    N2795    N        0.46520    0.02283    0.27340    1.000
    N2796    N        0.49900    0.14785    0.35030    1.000
    Si2797   Si       0.47492    0.18045    0.33665    1.000
    N2798    N        0.50031    0.21523    0.34225    1.000
    Si2799   Si       0.47624    0.15264    0.26882    1.000
    N2800    N        0.47631    0.19048    0.29336    1.000
    Si2801   Si       0.50468    0.22365    0.29937    1.000
    N2802    N        0.48847    0.02574    0.43294    1.000
    N2803    N        0.48600    0.10259    0.40366    1.000
    Si2804   Si       0.46081    0.08285    0.37512    1.000
    N2805    N        0.46326    0.16268    0.40509    1.000
    Si2806   Si       0.50039    0.14128    0.39338    1.000
    N2807    N        0.46929    0.22739    0.43666    1.000
    Si2808   Si       0.50656    0.16377    0.48375    1.000
    N2809    N        0.46500    0.16600    0.47324    1.000
    Si2810   Si       0.49493    0.23492    0.46975    1.000
    N2811    N        0.48940    0.11136    0.57909    1.000
    Si2812   Si       0.49752    0.04708    0.52529    1.000
    Si2813   Si       0.48801    0.12099    0.53740    1.000
    N2814    N        0.50925    0.08844    0.51848    1.000
    Si2815   Si       0.51198    0.07735    0.59397    1.000
    N2816    N        0.51168    0.04116    0.56731    1.000
    Si2817   Si       0.47223    0.13439    0.61320    1.000
    N2818    N        0.47165    0.24429    0.50583    1.000
    N2819    N        0.50865    0.15679    0.52519    1.000
    N2820    N        0.50000    0.22267    0.61624    1.000
    Si2821   Si       0.46004    0.20872    0.60488    1.000
    Si2822   Si       0.46171    0.07646    0.65076    1.000
    Si2823   Si       0.50801    0.01863    0.71469    1.000
    N2824    N        0.47662    0.09908    0.68602    1.000
    N2825    N        0.49778    0.06427    0.63249    1.000
    N2826    N        0.46713    0.03724    0.71744    1.000
    Si2827   Si       0.50415    0.13483    0.68227    1.000
    Si2828   Si       0.46157    0.07917    0.72371    1.000
    Si2829   Si       0.51669    0.02544    0.63804    1.000
    N2830    N        0.50256    0.24066    0.68481    1.000
    N2831    N        0.50905    0.13925    0.63782    1.000
    Si2832   Si       0.47934    0.24512    0.64830    1.000
    N2833    N        0.48811    0.17328    0.69818    1.000
    N2834    N        0.47970    0.12238    0.82045    1.000
    N2835    N        0.48775    0.08969    0.75728    1.000
    Si2836   Si       0.48581    0.12845    0.77774    1.000
    N2837    N        0.51644    0.03797    0.79561    1.000
    Si2838   Si       0.50356    0.13515    0.85521    1.000
    N2839    N        0.49415    0.21418    0.79116    1.000
    Si2840   Si       0.49289    0.21124    0.83351    1.000
    Si2841   Si       0.46812    0.24214    0.77219    1.000
    N2842    N        0.50247    0.24779    0.85552    1.000
    N2843    N        0.51080    0.02673    0.93444    1.000
    N2844    N        0.49453    0.08749    0.92545    1.000
    Si2845   Si       0.47794    0.05100    0.95082    1.000
    Si2846   Si       0.47180    0.12319    0.92577    1.000
    N2847    N        0.46944    0.01442    0.97887    1.000
    N2848    N        0.47723    0.07872    0.98933    1.000
    Si2849   Si       0.50773    0.01162    0.89369    1.000
    Si2850   Si       0.49524    0.25580    0.89640    1.000
    N2851    N        0.47416    0.13884    0.88526    1.000
    N2852    N        0.48751    0.15613    0.94952    1.000
    N2853    N        0.50159    0.22365    0.92451    1.000
    Si2854   Si       0.47089    0.19395    0.93774    1.000
    N2855    N        0.47408    0.33200    0.01936    1.000
    Si2856   Si       0.48422    0.31102    0.10289    1.000
    N2857    N        0.49624    0.26963    0.09338    1.000
    N2858    N        0.50895    0.33951    0.08126    1.000
    Si2859   Si       0.46827    0.34962    0.05708    1.000
    Si2860   Si       0.50899    0.38262    0.09785    1.000
    N2861    N        0.47893    0.39156    0.06695    1.000
    N2862    N        0.46814    0.44908    0.01368    1.000
    Si2863   Si       0.47804    0.43217    0.05403    1.000
    Si2864   Si       0.51157    0.45907    0.00966    1.000
    N2865    N        0.46089    0.45665    0.08423    1.000
    Si2866   Si       0.46585    0.32251    0.22726    1.000
    Si2867   Si       0.49138    0.27770    0.16921    1.000
    N2868    N        0.47827    0.28456    0.21090    1.000
    N2869    N        0.48249    0.31370    0.14558    1.000
    Si2870   Si       0.46910    0.35313    0.15986    1.000
    N2871    N        0.47629    0.35958    0.20255    1.000
    N2872    N        0.49180    0.38092    0.13735    1.000
    Si2873   Si       0.48824    0.46678    0.21481    1.000
    N2874    N        0.48320    0.42854    0.19416    1.000
    Si2875   Si       0.46496    0.39792    0.21962    1.000
    Si2876   Si       0.47638    0.46526    0.12319    1.000
    N2877    N        0.51245    0.44349    0.13585    1.000
    N2878    N        0.48982    0.50160    0.18925    1.000
    Si2879   Si       0.50925    0.41109    0.16406    1.000
    Si2880   Si       0.50356    0.29765    0.29060    1.000
    N2881    N        0.49095    0.31335    0.32893    1.000
    N2882    N        0.48679    0.33085    0.26744    1.000
    Si2883   Si       0.50504    0.36986    0.27562    1.000
    Si2884   Si       0.50561    0.34930    0.34701    1.000
    N2885    N        0.51040    0.37799    0.31698    1.000
    N2886    N        0.49027    0.25684    0.27628    1.000
    Si2887   Si       0.51671    0.29044    0.35891    1.000
    Si2888   Si       0.46839    0.48292    0.33205    1.000
    N2889    N        0.47990    0.40098    0.26076    1.000
    N2890    N        0.48788    0.45414    0.30465    1.000
    N2891    N        0.49368    0.49372    0.36498    1.000
    Si2892   Si       0.51134    0.41924    0.32291    1.000
    N2893    N        0.51105    0.42767    0.36604    1.000
    N2894    N        0.48183    0.36338    0.38177    1.000
    N2895    N        0.50977    0.27482    0.46054    1.000
    N2896    N        0.49321    0.26821    0.38598    1.000
    Si2897   Si       0.48660    0.31458    0.45689    1.000
    Si2898   Si       0.46010    0.26435    0.41261    1.000
    N2899    N        0.46265    0.31579    0.49207    1.000
    Si2900   Si       0.49307    0.49204    0.48189    1.000
    Si2901   Si       0.49718    0.40121    0.39885    1.000
    N2902    N        0.49351    0.44622    0.47283    1.000
    N2903    N        0.46116    0.41431    0.42098    1.000
    Si2904   Si       0.48048    0.28399    0.51835    1.000
    N2905    N        0.47135    0.36595    0.56160    1.000
    Si2906   Si       0.47265    0.32699    0.58125    1.000
    N2907    N        0.51223    0.31635    0.59435    1.000
    Si2908   Si       0.50740    0.38801    0.55760    1.000
    N2909    N        0.50065    0.42860    0.53941    1.000
    N2910    N        0.50174    0.49815    0.57340    1.000
    Si2911   Si       0.46712    0.44093    0.51414    1.000
    N2912    N        0.46111    0.48552    0.51650    1.000
    Si2913   Si       0.50555    0.31390    0.63771    1.000
    N2914    N        0.47195    0.28620    0.64359    1.000
    N2915    N        0.49417    0.31907    0.71035    1.000
    Si2916   Si       0.49198    0.34921    0.74218    1.000
    N2917    N        0.51500    0.35343    0.65223    1.000
    Si2918   Si       0.51187    0.27945    0.69821    1.000
    N2919    N        0.52104    0.37620    0.71962    1.000
    Si2920   Si       0.47341    0.44321    0.65662    1.000
    N2921    N        0.47548    0.43546    0.69954    1.000
    Si2922   Si       0.51278    0.41472    0.70230    1.000
    Si2923   Si       0.51495    0.39301    0.63359    1.000
    N2924    N        0.48777    0.47844    0.63898    1.000
    N2925    N        0.47142    0.40413    0.63571    1.000
    Si2926   Si       0.47746    0.33194    0.85033    1.000
    N2927    N        0.48022    0.36498    0.82209    1.000
    N2928    N        0.47954    0.28395    0.77844    1.000
    N2929    N        0.46469    0.37979    0.76078    1.000
    N2930    N        0.47989    0.45235    0.76283    1.000
    Si2931   Si       0.47762    0.40019    0.79851    1.000
    N2932    N        0.46173    0.43158    0.82505    1.000
    Si2933   Si       0.47374    0.43632    0.86731    1.000
    N2934    N        0.47656    0.50455    0.80674    1.000
    Si2935   Si       0.45921    0.46633    0.79907    1.000
    N2936    N        0.47975    0.34284    0.89179    1.000
    Si2937   Si       0.50809    0.28829    0.95866    1.000
    Si2938   Si       0.46278    0.37862    0.91234    1.000
    Si2939   Si       0.51785    0.33071    0.91249    1.000
    N2940    N        0.46730    0.28331    0.96517    1.000
    N2941    N        0.51479    0.33085    0.95856    1.000
    Si2942   Si       0.50796    0.34737    0.99704    1.000
    Si2943   Si       0.50853    0.50234    0.88943    1.000
    N2944    N        0.49414    0.38598    0.98844    1.000
    N2945    N        0.47765    0.47347    0.88904    1.000
    N2946    N        0.50371    0.39431    0.92006    1.000
    Si2947   Si       0.47788    0.53744    0.09180    1.000
    Si2948   Si       0.49735    0.61376    0.11103    1.000
    N2949    N        0.50477    0.56795    0.11268    1.000
    Si2950   Si       0.51104    0.52848    0.02473    1.000
    N2951    N        0.46900    0.52887    0.01632    1.000
    N2952    N        0.51562    0.53187    0.06689    1.000
    N2953    N        0.48152    0.64443    0.08528    1.000
    N2954    N        0.49904    0.71897    0.08220    1.000
    N2955    N        0.49382    0.66622    0.02050    1.000
    Si2956   Si       0.51113    0.64639    0.05477    1.000
    N2957    N        0.47745    0.50958    0.12458    1.000
    Si2958   Si       0.50716    0.53394    0.14516    1.000
    Si2959   Si       0.51360    0.53458    0.20807    1.000
    Si2960   Si       0.48112    0.70726    0.19714    1.000
    N2961    N        0.51427    0.71685    0.22640    1.000
    N2962    N        0.49001    0.67175    0.17369    1.000
    Si2963   Si       0.48978    0.53382    0.34983    1.000
    N2964    N        0.47543    0.51999    0.31116    1.000
    N2965    N        0.47129    0.58706    0.29449    1.000
    Si2966   Si       0.46915    0.54739    0.27671    1.000
    Si2967   Si       0.51330    0.58877    0.30874    1.000
    N2968    N        0.51807    0.56500    0.34675    1.000
    N2969    N        0.51689    0.63175    0.31383    1.000
    N2970    N        0.50232    0.54040    0.25022    1.000
    N2971    N        0.50888    0.75243    0.34839    1.000
    Si2972   Si       0.48312    0.64550    0.34436    1.000
    N2973    N        0.48339    0.71208    0.29019    1.000
    Si2974   Si       0.48002    0.72286    0.33393    1.000
    N2975    N        0.49728    0.68472    0.35049    1.000
    N2976    N        0.47478    0.61861    0.37924    1.000
    Si2977   Si       0.49893    0.57116    0.45164    1.000
    N2978    N        0.50982    0.52903    0.45956    1.000
    Si2979   Si       0.50708    0.62649    0.40619    1.000
    N2980    N        0.50205    0.59235    0.48966    1.000
    N2981    N        0.52135    0.58674    0.41680    1.000
    Si2982   Si       0.49009    0.72527    0.44983    1.000
    N2983    N        0.48432    0.74050    0.41111    1.000
    N2984    N        0.49145    0.64280    0.44272    1.000
    N2985    N        0.49895    0.75049    0.48239    1.000
    N2986    N        0.45834    0.69927    0.46135    1.000
    Si2987   Si       0.50011    0.61952    0.56843    1.000
    N2988    N        0.49718    0.58728    0.59867    1.000
    Si2989   Si       0.50144    0.54680    0.58141    1.000
    Si2990   Si       0.47853    0.62725    0.50239    1.000
    N2991    N        0.46572    0.61347    0.54205    1.000
    N2992    N        0.50481    0.66087    0.50646    1.000
    N2993    N        0.47602    0.72856    0.60109    1.000
    N2994    N        0.50041    0.66202    0.57865    1.000
    Si2995   Si       0.49937    0.74912    0.56723    1.000
    Si2996   Si       0.48873    0.68784    0.61193    1.000
    Si2997   Si       0.51920    0.52171    0.71913    1.000
    Si2998   Si       0.48072    0.51985    0.64914    1.000
    N2999    N        0.49729    0.58155    0.67324    1.000
    N3000    N        0.48525    0.51598    0.69226    1.000
    Si3001   Si       0.51167    0.59763    0.63634    1.000
    N3002    N        0.47287    0.63394    0.70600    1.000
    N3003    N        0.51389    0.64031    0.64752    1.000
    Si3004   Si       0.51010    0.64522    0.69179    1.000
    N3005    N        0.49466    0.74122    0.72857    1.000
    N3006    N        0.51282    0.68641    0.70719    1.000
    N3007    N        0.46429    0.72982    0.66975    1.000
    Si3008   Si       0.46872    0.75484    0.63492    1.000
    Si3009   Si       0.50401    0.72660    0.68909    1.000
    Si3010   Si       0.49190    0.54225    0.79130    1.000
    N3011    N        0.47647    0.57996    0.80560    1.000
    Si3012   Si       0.50692    0.60705    0.82177    1.000
    N3013    N        0.48807    0.53952    0.74798    1.000
    N3014    N        0.48501    0.64372    0.82944    1.000
    N3015    N        0.49546    0.70759    0.85608    1.000
    Si3016   Si       0.48335    0.66784    0.86430    1.000
    Si3017   Si       0.46646    0.73254    0.83899    1.000
    N3018    N        0.48992    0.75799    0.80959    1.000
    Si3019   Si       0.49896    0.70103    0.74745    1.000
    Si3020   Si       0.50405    0.62120    0.92386    1.000
    Si3021   Si       0.47051    0.56154    0.91860    1.000
    N3022    N        0.46804    0.60363    0.90891    1.000
    N3023    N        0.50620    0.54624    0.90076    1.000
    N3024    N        0.50338    0.61955    0.96656    1.000
    Si3025   Si       0.48764    0.58658    0.98982    1.000
    N3026    N        0.46850    0.56004    0.96116    1.000
    Si3027   Si       0.51574    0.69414    0.92188    1.000
    N3028    N        0.51179    0.65575    0.89736    1.000
    N3029    N        0.48068    0.71490    0.93501    1.000
    Si3030   Si       0.49065    0.75656    0.94515    1.000
    Si3031   Si       0.48086    0.78059    0.03112    1.000
    N3032    N        0.47471    0.82144    0.03939    1.000
    Si3033   Si       0.50725    0.88297    0.11211    1.000
    N3034    N        0.47987    0.88294    0.01701    1.000
    Si3035   Si       0.47138    0.98223    0.07946    1.000
    N3036    N        0.51347    0.98060    0.06807    1.000
    N3037    N        0.51475    0.91155    0.08027    1.000
    Si3038   Si       0.51507    0.89655    0.03996    1.000
    N3039    N        0.46502    0.87826    0.12481    1.000
    N3040    N        0.46763    0.79209    0.21167    1.000
    N3041    N        0.48046    0.86635    0.19306    1.000
    Si3042   Si       0.50468    0.86610    0.22676    1.000
    Si3043   Si       0.48304    0.77709    0.17361    1.000
    N3044    N        0.48608    0.81117    0.14723    1.000
    N3045    N        0.50858    0.98136    0.24462    1.000
    Si3046   Si       0.49005    0.98399    0.20509    1.000
    N3047    N        0.50443    0.94726    0.18677    1.000
    Si3048   Si       0.48106    0.90937    0.19451    1.000
    N3049    N        0.48702    0.90670    0.24070    1.000
    N3050    N        0.50342    0.83475    0.25580    1.000
    Si3051   Si       0.48436    0.79433    0.25295    1.000
    N3052    N        0.51796    0.87999    0.31065    1.000
    N3053    N        0.49340    0.94851    0.29879    1.000
    Si3054   Si       0.48645    0.90724    0.31938    1.000
    N3055    N        0.48235    0.91255    0.36165    1.000
    Si3056   Si       0.51111    0.93948    0.25727    1.000
    Si3057   Si       0.46313    0.97892    0.28595    1.000
    N3058    N        0.48749    0.84302    0.43562    1.000
    Si3059   Si       0.47848    0.84170    0.48039    1.000
    Si3060   Si       0.49978    0.77364    0.38642    1.000
    N3061    N        0.46505    0.80096    0.38310    1.000
    N3062    N        0.46051    0.80330    0.48669    1.000
    Si3063   Si       0.48590    0.93771    0.44679    1.000
    N3064    N        0.50823    0.90031    0.46053    1.000
    N3065    N        0.47351    0.96161    0.47969    1.000
    Si3066   Si       0.49944    0.99800    0.40026    1.000
    N3067    N        0.50502    0.95735    0.41099    1.000
    N3068    N        0.49485    0.82810    0.59008    1.000
    Si3069   Si       0.47977    0.77595    0.51033    1.000
    Si3070   Si       0.49169    0.87196    0.59816    1.000
    N3071    N        0.51681    0.78156    0.53235    1.000
    N3072    N        0.46032    0.75807    0.54499    1.000
    Si3073   Si       0.50147    0.95914    0.51582    1.000
    N3074    N        0.48105    0.98500    0.54473    1.000
    N3075    N        0.49930    0.91611    0.52546    1.000
    N3076    N        0.48749    0.99916    0.61632    1.000
    Si3077   Si       0.50861    0.99808    0.57773    1.000
    Si3078   Si       0.46007    0.90045    0.53048    1.000
    N3079    N        0.51115    0.80793    0.70970    1.000
    Si3080   Si       0.49194    0.84797    0.71813    1.000
    N3081    N        0.48213    0.79699    0.64211    1.000
    Si3082   Si       0.51649    0.79513    0.66798    1.000
    N3083    N        0.50090    0.94041    0.69060    1.000
    N3084    N        0.51252    0.00501    0.67533    1.000
    Si3085   Si       0.51861    0.91411    0.66142    1.000
    Si3086   Si       0.48730    0.94860    0.72905    1.000
    Si3087   Si       0.49451    0.97004    0.65487    1.000
    N3088    N        0.49260    0.88479    0.64105    1.000
    Si3089   Si       0.49027    0.79177    0.83846    1.000
    N3090    N        0.48508    0.85201    0.76119    1.000
    N3091    N        0.47048    0.82667    0.82291    1.000
    Si3092   Si       0.47528    0.86580    0.84565    1.000
    N3093    N        0.46189    0.76959    0.86339    1.000
    Si3094   Si       0.49910    0.78192    0.74451    1.000
    Si3095   Si       0.51845    0.88190    0.76140    1.000
    N3096    N        0.49560    0.91971    0.76049    1.000
    N3097    N        0.50054    0.89484    0.82418    1.000
    Si3098   Si       0.48566    0.92948    0.80107    1.000
    N3099    N        0.50140    0.96646    0.81209    1.000
    Si3100   Si       0.49336    0.00167    0.78819    1.000
    N3101    N        0.49430    0.98976    0.74455    1.000
    N3102    N        0.49555    0.85962    0.88424    1.000
    N3103    N        0.48495    0.77468    0.98647    1.000
    N3104    N        0.48132    0.92731    0.89861    1.000
    N3105    N        0.50486    0.88579    0.95051    1.000
    Si3106   Si       0.49125    0.90823    0.98361    1.000
    N3107    N        0.46234    0.94009    0.98368    1.000
    Si3108   Si       0.47866    0.88666    0.91338    1.000
    N3109    N        0.51344    0.96070    0.95071    1.000
    Si3110   Si       0.47417    0.97580    0.96001    1.000
    N3111    N        0.46802    0.00236    0.88078    1.000
    N3112    N        0.53844    0.10152    0.04154    1.000
    Si3113   Si       0.53226    0.10367    0.08540    1.000
    N3114    N        0.56567    0.07886    0.09981    1.000
    N3115    N        0.56813    0.02849    0.05125    1.000
    Si3116   Si       0.53222    0.00825    0.04157    1.000
    N3117    N        0.54705    0.13520    0.11287    1.000
    Si3118   Si       0.55220    0.13846    0.02440    1.000
    N3119    N        0.57146    0.22415    0.02858    1.000
    Si3120   Si       0.53495    0.20438    0.02270    1.000
    N3121    N        0.56619    0.24530    0.10218    1.000
    N3122    N        0.52508    0.16643    0.04234    1.000
    Si3123   Si       0.53428    0.25510    0.07563    1.000
    Si3124   Si       0.54937    0.11264    0.18778    1.000
    N3125    N        0.55505    0.10751    0.22947    1.000
    Si3126   Si       0.52958    0.04043    0.17031    1.000
    N3127    N        0.52358    0.02998    0.12695    1.000
    N3128    N        0.52035    0.08175    0.17688    1.000
    Si3129   Si       0.57522    0.07390    0.24666    1.000
    N3130    N        0.56036    0.01010    0.17504    1.000
    Si3131   Si       0.55270    0.16894    0.14184    1.000
    Si3132   Si       0.55509    0.24097    0.14522    1.000
    N3133    N        0.54087    0.15503    0.18183    1.000
    N3134    N        0.53016    0.20632    0.13866    1.000
    Si3135   Si       0.55153    0.22238    0.24402    1.000
    N3136    N        0.55051    0.04361    0.26697    1.000
    N3137    N        0.53225    0.08549    0.33547    1.000
    Si3138   Si       0.57086    0.08020    0.35690    1.000
    N3139    N        0.57116    0.03834    0.33775    1.000
    Si3140   Si       0.52400    0.04006    0.34409    1.000
    Si3141   Si       0.57691    0.02681    0.29590    1.000
    N3142    N        0.56861    0.18281    0.24963    1.000
    N3143    N        0.54115    0.14362    0.29297    1.000
    N3144    N        0.54577    0.22396    0.28886    1.000
    Si3145   Si       0.56460    0.18178    0.30046    1.000
    N3146    N        0.56456    0.19396    0.34264    1.000
    Si3147   Si       0.53964    0.22395    0.36334    1.000
    Si3148   Si       0.54566    0.14471    0.24853    1.000
    Si3149   Si       0.57398    0.05098    0.42969    1.000
    N3150    N        0.55442    0.01420    0.44680    1.000
    N3151    N        0.55988    0.08301    0.39753    1.000
    Si3152   Si       0.55357    0.11453    0.42859    1.000
    N3153    N        0.54411    0.07659    0.45585    1.000
    Si3154   Si       0.54345    0.09874    0.49177    1.000
    Si3155   Si       0.52038    0.04137    0.45647    1.000
    Si3156   Si       0.57690    0.01019    0.37069    1.000
    N3157    N        0.52361    0.20074    0.46581    1.000
    N3158    N        0.53562    0.13388    0.46932    1.000
    N3159    N        0.54985    0.21839    0.40366    1.000
    Si3160   Si       0.54838    0.18639    0.43365    1.000
    N3161    N        0.53794    0.14966    0.40859    1.000
    N3162    N        0.55064    0.09774    0.59663    1.000
    N3163    N        0.51774    0.02255    0.49628    1.000
    Si3164   Si       0.54576    0.13807    0.61278    1.000
    Si3165   Si       0.53750    0.21337    0.59590    1.000
    N3166    N        0.54252    0.17090    0.58599    1.000
    Si3167   Si       0.54224    0.17976    0.54211    1.000
    N3168    N        0.53591    0.22259    0.55292    1.000
    Si3169   Si       0.55368    0.25600    0.53207    1.000
    N3170    N        0.55403    0.01912    0.61870    1.000
    N3171    N        0.53882    0.03988    0.73307    1.000
    N3172    N        0.54276    0.12904    0.70068    1.000
    Si3173   Si       0.55127    0.13293    0.74315    1.000
    N3174    N        0.53974    0.21109    0.73402    1.000
    Si3175   Si       0.56703    0.24429    0.72695    1.000
    N3176    N        0.55655    0.18863    0.67566    1.000
    Si3177   Si       0.52068    0.20294    0.69529    1.000
    Si3178   Si       0.54171    0.04003    0.83116    1.000
    N3179    N        0.55438    0.09533    0.76563    1.000
    Si3180   Si       0.52237    0.06692    0.76298    1.000
    N3181    N        0.56856    0.07346    0.82527    1.000
    Si3182   Si       0.57247    0.11073    0.84860    1.000
    Si3183   Si       0.55767    0.17939    0.83593    1.000
    N3184    N        0.55598    0.20495    0.80226    1.000
    Si3185   Si       0.52820    0.19561    0.77157    1.000
    N3186    N        0.51860    0.15282    0.76654    1.000
    N3187    N        0.57125    0.14187    0.81892    1.000
    N3188    N        0.51670    0.17735    0.84817    1.000
    N3189    N        0.52830    0.04484    0.87244    1.000
    N3190    N        0.53751    0.11517    0.87641    1.000
    N3191    N        0.56326    0.08070    0.92447    1.000
    Si3192   Si       0.54124    0.02215    0.96517    1.000
    Si3193   Si       0.52582    0.07962    0.89904    1.000
    Si3194   Si       0.56811    0.12766    0.90920    1.000
    N3195    N        0.54972    0.06055    0.98812    1.000
    Si3196   Si       0.57205    0.09886    0.96683    1.000
    N3197    N        0.54601    0.12991    0.98250    1.000
    N3198    N        0.53124    0.19683    0.98052    1.000
    Si3199   Si       0.53681    0.22818    0.94965    1.000
    Si3200   Si       0.52886    0.15914    0.95747    1.000
    N3201    N        0.55305    0.16873    0.92117    1.000
    N3202    N        0.57046    0.23366    0.92073    1.000
    N3203    N        0.55094    0.28612    0.04967    1.000
    Si3204   Si       0.54745    0.32857    0.06081    1.000
    N3205    N        0.54269    0.34625    0.02284    1.000
    Si3206   Si       0.56249    0.26391    0.01398    1.000
    Si3207   Si       0.57615    0.36395    0.11968    1.000
    Si3208   Si       0.57497    0.36622    0.00073    1.000
    N3209    N        0.54973    0.39355    0.09332    1.000
    Si3210   Si       0.56008    0.42147    0.05811    1.000
    N3211    N        0.53626    0.49533    0.00634    1.000
    N3212    N        0.52160    0.43843    0.04679    1.000
    N3213    N        0.53436    0.27480    0.16350    1.000
    Si3214   Si       0.56131    0.30553    0.17537    1.000
    Si3215   Si       0.55531    0.36566    0.21506    1.000
    N3216    N        0.55168    0.32225    0.21532    1.000
    N3217    N        0.56044    0.33636    0.14757    1.000
    N3218    N        0.57157    0.25930    0.23676    1.000
    N3219    N        0.56163    0.46443    0.18311    1.000
    Si3220   Si       0.55007    0.46571    0.14073    1.000
    Si3221   Si       0.55244    0.43613    0.21509    1.000
    N3222    N        0.52088    0.45591    0.23972    1.000
    N3223    N        0.54303    0.39991    0.19081    1.000
    N3224    N        0.54669    0.29741    0.28802    1.000
    N3225    N        0.54603    0.26384    0.34394    1.000
    Si3226   Si       0.57049    0.30061    0.24948    1.000
    N3227    N        0.53714    0.32784    0.36856    1.000
    Si3228   Si       0.56480    0.26169    0.30567    1.000
    N3229    N        0.54242    0.37911    0.25453    1.000
    N3230    N        0.54795    0.43569    0.30311    1.000
    N3231    N        0.56142    0.47661    0.35726    1.000
    Si3232   Si       0.56974    0.40635    0.27491    1.000
    Si3233   Si       0.52603    0.46760    0.28169    1.000
    N3234    N        0.54961    0.50280    0.29003    1.000
    N3235    N        0.56682    0.28370    0.41776    1.000
    Si3236   Si       0.54742    0.29607    0.45553    1.000
    Si3237   Si       0.55111    0.36700    0.44703    1.000
    N3238    N        0.52442    0.33341    0.45318    1.000
    N3239    N        0.57266    0.36973    0.48475    1.000
    Si3240   Si       0.57156    0.31810    0.39214    1.000
    Si3241   Si       0.53023    0.43874    0.44911    1.000
    Si3242   Si       0.56759    0.48323    0.49247    1.000
    N3243    N        0.52816    0.47359    0.42137    1.000
    N3244    N        0.52916    0.40078    0.42700    1.000
    N3245    N        0.56905    0.44649    0.46717    1.000
    Si3246   Si       0.52483    0.46802    0.37895    1.000
    Si3247   Si       0.54049    0.31325    0.55934    1.000
    N3248    N        0.53393    0.35524    0.54016    1.000
    N3249    N        0.57200    0.28049    0.56408    1.000
    Si3250   Si       0.57003    0.37475    0.52875    1.000
    N3251    N        0.52225    0.28568    0.52770    1.000
    N3252    N        0.54678    0.45838    0.58395    1.000
    Si3253   Si       0.56380    0.41917    0.58852    1.000
    N3254    N        0.52772    0.48505    0.50982    1.000
    N3255    N        0.52937    0.39432    0.59387    1.000
    Si3256   Si       0.52376    0.48787    0.61193    1.000
    Si3257   Si       0.52183    0.46728    0.54915    1.000
    N3258    N        0.57105    0.33254    0.69379    1.000
    N3259    N        0.53414    0.29349    0.66364    1.000
    Si3260   Si       0.52983    0.34121    0.69122    1.000
    N3261    N        0.53848    0.27520    0.73262    1.000
    N3262    N        0.53757    0.49292    0.74223    1.000
    Si3263   Si       0.56476    0.44836    0.65603    1.000
    N3264    N        0.53823    0.43053    0.73484    1.000
    N3265    N        0.55892    0.48958    0.64060    1.000
    N3266    N        0.52825    0.42482    0.66140    1.000
    Si3267   Si       0.52972    0.27781    0.83794    1.000
    N3268    N        0.54968    0.27465    0.79878    1.000
    Si3269   Si       0.52372    0.35400    0.81097    1.000
    Si3270   Si       0.56513    0.32541    0.85839    1.000
    N3271    N        0.57149    0.35205    0.82257    1.000
    N3272    N        0.52419    0.33584    0.77058    1.000
    Si3273   Si       0.52306    0.29355    0.76988    1.000
    N3274    N        0.52028    0.31893    0.83894    1.000
    N3275    N        0.56275    0.28026    0.86711    1.000
    Si3276   Si       0.54468    0.38941    0.75333    1.000
    Si3277   Si       0.54211    0.42779    0.82408    1.000
    N3278    N        0.53593    0.46466    0.80270    1.000
    N3279    N        0.52470    0.39823    0.79353    1.000
    N3280    N        0.53878    0.50498    0.85612    1.000
    Si3281   Si       0.52154    0.45856    0.76156    1.000
    N3282    N        0.51762    0.42314    0.86038    1.000
    Si3283   Si       0.54787    0.50454    0.81409    1.000
    N3284    N        0.54785    0.35081    0.88937    1.000
    N3285    N        0.53677    0.26291    0.97827    1.000
    N3286    N        0.51814    0.28646    0.91629    1.000
    N3287    N        0.56143    0.38392    0.96299    1.000
    Si3288   Si       0.53550    0.39468    0.89054    1.000
    Si3289   Si       0.56978    0.50450    0.88955    1.000
    N3290    N        0.57337    0.41342    0.90015    1.000
    Si3291   Si       0.52204    0.40111    0.95862    1.000
    N3292    N        0.53882    0.49299    0.91948    1.000
    Si3293   Si       0.54628    0.47898    0.96124    1.000
    N3294    N        0.52456    0.44286    0.97058    1.000
    Si3295   Si       0.53977    0.56759    0.08336    1.000
    Si3296   Si       0.55718    0.59092    0.01795    1.000
    N3297    N        0.52959    0.61016    0.07589    1.000
    N3298    N        0.57128    0.56775    0.05130    1.000
    N3299    N        0.52119    0.56809    0.00995    1.000
    N3300    N        0.56828    0.57582    0.11962    1.000
    N3301    N        0.54816    0.63563    0.01571    1.000
    Si3302   Si       0.55724    0.63532    0.09618    1.000
    Si3303   Si       0.53932    0.70781    0.09044    1.000
    N3304    N        0.54706    0.67036    0.06945    1.000
    N3305    N        0.57360    0.73410    0.07443    1.000
    Si3306   Si       0.57019    0.67005    0.03223    1.000
    Si3307   Si       0.54583    0.59297    0.15670    1.000
    N3308    N        0.55323    0.52243    0.22136    1.000
    N3309    N        0.53178    0.63077    0.13565    1.000
    N3310    N        0.54119    0.50848    0.13506    1.000
    N3311    N        0.52259    0.56041    0.17580    1.000
    N3312    N        0.57831    0.59565    0.18682    1.000
    Si3313   Si       0.54931    0.74709    0.14458    1.000
    N3314    N        0.57267    0.73617    0.21972    1.000
    N3315    N        0.55169    0.66424    0.19538    1.000
    Si3316   Si       0.55257    0.69465    0.22358    1.000
    Si3317   Si       0.52945    0.66837    0.15948    1.000
    Si3318   Si       0.53384    0.75449    0.21869    1.000
    N3319    N        0.54341    0.70426    0.13410    1.000
    N3320    N        0.54459    0.57718    0.28270    1.000
    Si3321   Si       0.54485    0.53911    0.26240    1.000
    N3322    N        0.57537    0.59534    0.36849    1.000
    Si3323   Si       0.52159    0.71835    0.27031    1.000
    Si3324   Si       0.54189    0.67581    0.35601    1.000
    Si3325   Si       0.54952    0.64730    0.29074    1.000
    N3326    N        0.55618    0.73154    0.29993    1.000
    N3327    N        0.54562    0.68145    0.26430    1.000
    N3328    N        0.56894    0.66893    0.32320    1.000
    Si3329   Si       0.54979    0.74177    0.34305    1.000
    N3330    N        0.56284    0.71198    0.37096    1.000
    N3331    N        0.57150    0.51737    0.46486    1.000
    Si3332   Si       0.54335    0.56910    0.38155    1.000
    N3333    N        0.55470    0.52964    0.39580    1.000
    Si3334   Si       0.54237    0.51476    0.43460    1.000
    N3335    N        0.57032    0.58664    0.49356    1.000
    N3336    N        0.56560    0.65806    0.46830    1.000
    Si3337   Si       0.52044    0.66310    0.46610    1.000
    Si3338   Si       0.56721    0.70049    0.46134    1.000
    N3339    N        0.52598    0.70114    0.44764    1.000
    N3340    N        0.53989    0.64592    0.38676    1.000
    N3341    N        0.53527    0.55317    0.55028    1.000
    Si3342   Si       0.53365    0.58560    0.51896    1.000
    N3343    N        0.53813    0.61980    0.54631    1.000
    Si3344   Si       0.57604    0.54575    0.56426    1.000
    N3345    N        0.57220    0.63811    0.60719    1.000
    Si3346   Si       0.53293    0.74687    0.51066    1.000
    N3347    N        0.56745    0.67740    0.54814    1.000
    Si3348   Si       0.52229    0.67617    0.54409    1.000
    N3349    N        0.56679    0.72402    0.49663    1.000
    N3350    N        0.51709    0.71893    0.54243    1.000
    Si3351   Si       0.53951    0.58333    0.68826    1.000
    Si3352   Si       0.55485    0.53822    0.65076    1.000
    N3353    N        0.55303    0.58478    0.64510    1.000
    N3354    N        0.54775    0.54106    0.69270    1.000
    N3355    N        0.54174    0.62153    0.70582    1.000
    Si3356   Si       0.57301    0.63011    0.73263    1.000
    N3357    N        0.51764    0.53200    0.62409    1.000
    N3358    N        0.57360    0.67484    0.66722    1.000
    Si3359   Si       0.54499    0.73736    0.62758    1.000
    Si3360   Si       0.54944    0.66350    0.63352    1.000
    N3361    N        0.52838    0.69823    0.62255    1.000
    N3362    N        0.52827    0.75353    0.66403    1.000
    Si3363   Si       0.55711    0.58211    0.78593    1.000
    N3364    N        0.53535    0.61837    0.79138    1.000
    N3365    N        0.53235    0.60147    0.85607    1.000
    N3366    N        0.53551    0.54500    0.79781    1.000
    Si3367   Si       0.54405    0.66258    0.79534    1.000
    N3368    N        0.55270    0.66941    0.83703    1.000
    N3369    N        0.55320    0.74171    0.83348    1.000
    Si3370   Si       0.54097    0.70715    0.85654    1.000
    Si3371   Si       0.52936    0.74159    0.79526    1.000
    N3372    N        0.52094    0.69925    0.78365    1.000
    N3373    N        0.57498    0.66510    0.76152    1.000
    N3374    N        0.54516    0.60250    0.91859    1.000
    Si3375   Si       0.54146    0.57135    0.88801    1.000
    N3376    N        0.57878    0.54710    0.88979    1.000
    Si3377   Si       0.54589    0.63792    0.87540    1.000
    N3378    N        0.53529    0.67792    0.95736    1.000
    Si3379   Si       0.51843    0.65273    0.98927    1.000
    Si3380   Si       0.56340    0.74622    0.92385    1.000
    N3381    N        0.54291    0.71686    0.89795    1.000
    N3382    N        0.53434    0.75859    0.95304    1.000
    N3383    N        0.54894    0.87155    0.04255    1.000
    Si3384   Si       0.56432    0.84754    0.07612    1.000
    Si3385   Si       0.55342    0.77449    0.07167    1.000
    N3386    N        0.53627    0.77347    0.11186    1.000
    N3387    N        0.52599    0.84807    0.09937    1.000
    N3388    N        0.52402    0.77292    0.03798    1.000
    Si3389   Si       0.53637    0.94856    0.08570    1.000
    N3390    N        0.52645    0.92374    0.00738    1.000
    N3391    N        0.57319    0.94947    0.06100    1.000
    N3392    N        0.53825    0.99461    0.99996    1.000
    Si3393   Si       0.55187    0.86831    0.16737    1.000
    N3394    N        0.55450    0.82711    0.15897    1.000
    N3395    N        0.54334    0.87538    0.21130    1.000
    Si3396   Si       0.52493    0.81364    0.12736    1.000
    N3397    N        0.52425    0.76205    0.17774    1.000
    N3398    N        0.54517    0.96193    0.12457    1.000
    Si3399   Si       0.56901    0.89044    0.24463    1.000
    Si3400   Si       0.55604    0.00194    0.13127    1.000
    Si3401   Si       0.53645    0.93765    0.15960    1.000
    N3402    N        0.52807    0.89711    0.14656    1.000
    N3403    N        0.57515    0.94097    0.18165    1.000
    N3404    N        0.54294    0.81174    0.31147    1.000
    Si3405   Si       0.55425    0.77572    0.28698    1.000
    Si3406   Si       0.53115    0.84707    0.28929    1.000
    N3407    N        0.56768    0.85641    0.27036    1.000
    Si3408   Si       0.57466    0.81450    0.34354    1.000
    N3409    N        0.52275    0.77121    0.25783    1.000
    N3410    N        0.54013    0.94253    0.34801    1.000
    N3411    N        0.55694    0.98490    0.29468    1.000
    N3412    N        0.55175    0.92731    0.25939    1.000
    Si3413   Si       0.52531    0.97157    0.31847    1.000
    N3414    N        0.53622    0.78839    0.40266    1.000
    Si3415   Si       0.56706    0.81240    0.41840    1.000
    N3416    N        0.55611    0.84478    0.44339    1.000
    Si3417   Si       0.52111    0.86983    0.43245    1.000
    Si3418   Si       0.55546    0.99942    0.48755    1.000
    Si3419   Si       0.51784    0.92679    0.38122    1.000
    N3420    N        0.53580    0.89137    0.39748    1.000
    N3421    N        0.53248    0.01139    0.37675    1.000
    N3422    N        0.55536    0.82705    0.57019    1.000
    Si3423   Si       0.53846    0.81883    0.53133    1.000
    Si3424   Si       0.53182    0.80639    0.60123    1.000
    N3425    N        0.53184    0.76376    0.59518    1.000
    Si3426   Si       0.57113    0.86523    0.58699    1.000
    N3427    N        0.51512    0.84812    0.50755    1.000
    N3428    N        0.53133    0.88632    0.58833    1.000
    Si3429   Si       0.53939    0.93146    0.59454    1.000
    N3430    N        0.53489    0.96578    0.56938    1.000
    N3431    N        0.54055    0.96062    0.49758    1.000
    Si3432   Si       0.52233    0.89166    0.49990    1.000
    N3433    N        0.56604    0.89708    0.49067    1.000
    N3434    N        0.52649    0.87363    0.71972    1.000
    N3435    N        0.54499    0.81439    0.64264    1.000
    Si3436   Si       0.56623    0.88356    0.70492    1.000
    N3437    N        0.51919    0.94536    0.63054    1.000
    N3438    N        0.55944    0.90315    0.66806    1.000
    N3439    N        0.55690    0.86741    0.85456    1.000
    Si3440   Si       0.56416    0.78015    0.85621    1.000
    N3441    N        0.53507    0.77437    0.76800    1.000
    N3442    N        0.52830    0.80362    0.85670    1.000
    N3443    N        0.55480    0.88830    0.78491    1.000
    Si3444   Si       0.54403    0.89874    0.82745    1.000
    Si3445   Si       0.53727    0.96920    0.84053    1.000
    N3446    N        0.56097    0.93394    0.84605    1.000
    N3447    N        0.56423    0.00226    0.82989    1.000
    N3448    N        0.57984    0.98339    0.75178    1.000
    Si3449   Si       0.53368    0.84153    0.87928    1.000
    Si3450   Si       0.53837    0.85472    0.95317    1.000
    N3451    N        0.55342    0.83714    0.91651    1.000
    N3452    N        0.54018    0.82061    0.98186    1.000
    Si3453   Si       0.53122    0.77853    0.99274    1.000
    N3454    N        0.57015    0.87901    0.96866    1.000
    N3455    N        0.57840    0.77700    0.89687    1.000
    Si3456   Si       0.52107    0.94057    0.91294    1.000
    N3457    N        0.56070    0.92223    0.91641    1.000
    N3458    N        0.52869    0.97557    0.88451    1.000
    Si3459   Si       0.54180    0.95610    0.98338    1.000
    N3460    N        0.61717    0.06690    0.05901    1.000
    Si3461   Si       0.59050    0.05397    0.02081    1.000
    N3462    N        0.61863    0.12110    0.10091    1.000
    Si3463   Si       0.58928    0.04624    0.08443    1.000
    Si3464   Si       0.62341    0.13121    0.01224    1.000
    N3465    N        0.60595    0.09127    0.99588    1.000
    N3466    N        0.59459    0.01834    0.11640    1.000
    N3467    N        0.61932    0.02927    0.99652    1.000
    Si3468   Si       0.62351    0.16414    0.09948    1.000
    N3469    N        0.62430    0.20257    0.07284    1.000
    Si3470   Si       0.60559    0.19856    0.03214    1.000
    N3471    N        0.59357    0.15530    0.03053    1.000
    Si3472   Si       0.60921    0.24163    0.09263    1.000
    Si3473   Si       0.58307    0.11132    0.12264    1.000
    N3474    N        0.60537    0.05555    0.22063    1.000
    Si3475   Si       0.61770    0.08724    0.19002    1.000
    Si3476   Si       0.62670    0.02485    0.14504    1.000
    N3477    N        0.58539    0.10581    0.16490    1.000
    Si3478   Si       0.62143    0.01715    0.23556    1.000
    N3479    N        0.63723    0.06286    0.16145    1.000
    N3480    N        0.63319    0.23340    0.21839    1.000
    N3481    N        0.58021    0.22181    0.17932    1.000
    Si3482   Si       0.61379    0.20456    0.15799    1.000
    N3483    N        0.62398    0.23897    0.13283    1.000
    N3484    N        0.59550    0.17257    0.13296    1.000
    Si3485   Si       0.59821    0.25133    0.20414    1.000
    N3486    N        0.59909    0.09688    0.27575    1.000
    N3487    N        0.61599    0.02302    0.28083    1.000
    N3488    N        0.60140    0.10544    0.34468    1.000
    Si3489   Si       0.60866    0.12422    0.30796    1.000
    N3490    N        0.60596    0.16766    0.30764    1.000
    Si3491   Si       0.60848    0.19497    0.34929    1.000
    N3492    N        0.59886    0.02979    0.40234    1.000
    N3493    N        0.60924    0.06380    0.45615    1.000
    N3494    N        0.59782    0.12488    0.42950    1.000
    Si3495   Si       0.63022    0.09563    0.43522    1.000
    Si3496   Si       0.59399    0.19805    0.49411    1.000
    Si3497   Si       0.61456    0.16436    0.42302    1.000
    N3498    N        0.61698    0.24517    0.44494    1.000
    Si3499   Si       0.58548    0.24533    0.41020    1.000
    N3500    N        0.60735    0.23393    0.37397    1.000
    N3501    N        0.58865    0.18526    0.45111    1.000
    N3502    N        0.62510    0.16982    0.38093    1.000
    N3503    N        0.60969    0.11589    0.57126    1.000
    N3504    N        0.60952    0.05242    0.58420    1.000
    Si3505   Si       0.59264    0.08974    0.60408    1.000
    N3506    N        0.58690    0.01996    0.51099    1.000
    Si3507   Si       0.60354    0.06076    0.49945    1.000
    N3508    N        0.57978    0.09632    0.51214    1.000
    Si3509   Si       0.59447    0.02974    0.61867    1.000
    Si3510   Si       0.60097    0.12996    0.53133    1.000
    N3511    N        0.63142    0.24287    0.57289    1.000
    N3512    N        0.57836    0.16734    0.52263    1.000
    N3513    N        0.58229    0.23738    0.50424    1.000
    N3514    N        0.57483    0.22700    0.61453    1.000
    N3515    N        0.63698    0.20466    0.49527    1.000
    N3516    N        0.59562    0.06938    0.64276    1.000
    Si3517   Si       0.62041    0.04845    0.67316    1.000
    N3518    N        0.60917    0.02834    0.70892    1.000
    N3519    N        0.62714    0.01399    0.64377    1.000
    Si3520   Si       0.57876    0.02544    0.73961    1.000
    N3521    N        0.58463    0.14039    0.63440    1.000
    N3522    N        0.62089    0.14240    0.68938    1.000
    N3523    N        0.62199    0.19790    0.65546    1.000
    Si3524   Si       0.58352    0.21878    0.65734    1.000
    Si3525   Si       0.62991    0.16016    0.72945    1.000
    N3526    N        0.58110    0.25314    0.68721    1.000
    Si3527   Si       0.57670    0.14837    0.67833    1.000
    Si3528   Si       0.62585    0.16234    0.63321    1.000
    N3529    N        0.60386    0.04612    0.76859    1.000
    N3530    N        0.62140    0.10734    0.79233    1.000
    Si3531   Si       0.58758    0.08084    0.78794    1.000
    Si3532   Si       0.57972    0.24339    0.79645    1.000
    N3533    N        0.62958    0.17757    0.80275    1.000
    N3534    N        0.58798    0.19257    0.86190    1.000
    Si3535   Si       0.60274    0.14619    0.79012    1.000
    Si3536   Si       0.62338    0.20268    0.83573    1.000
    N3537    N        0.59830    0.24516    0.75710    1.000
    N3538    N        0.61251    0.24313    0.82234    1.000
    N3539    N        0.59071    0.14989    0.74676    1.000
    Si3540   Si       0.59075    0.04555    0.91628    1.000
    N3541    N        0.60680    0.03200    0.87835    1.000
    N3542    N        0.62460    0.06593    0.93253    1.000
    N3543    N        0.60019    0.11816    0.87907    1.000
    N3544    N        0.60046    0.12946    0.94166    1.000
    N3545    N        0.57749    0.01225    0.94231    1.000
    Si3546   Si       0.63188    0.06263    0.97428    1.000
    N3547    N        0.62426    0.25689    0.88518    1.000
    Si3548   Si       0.63420    0.15736    0.94376    1.000
    Si3549   Si       0.58462    0.19642    0.90443    1.000
    N3550    N        0.62618    0.19267    0.91727    1.000
    Si3551   Si       0.62034    0.31687    0.08321    1.000
    N3552    N        0.62952    0.27637    0.07752    1.000
    N3553    N        0.58276    0.33531    0.08623    1.000
    N3554    N        0.59987    0.27988    0.00087    1.000
    N3555    N        0.62389    0.41051    0.08009    1.000
    Si3556   Si       0.60377    0.47382    0.08553    1.000
    Si3557   Si       0.61949    0.42280    0.03779    1.000
    N3558    N        0.58335    0.39912    0.02720    1.000
    N3559    N        0.58605    0.45623    0.04950    1.000
    N3560    N        0.58577    0.45194    0.12001    1.000
    Si3561   Si       0.57931    0.48793    0.01651    1.000
    N3562    N        0.59868    0.28541    0.17639    1.000
    N3563    N        0.59864    0.36883    0.21738    1.000
    Si3564   Si       0.63192    0.27875    0.14907    1.000
    N3565    N        0.63625    0.31640    0.12550    1.000
    Si3566   Si       0.61850    0.42206    0.12019    1.000
    N3567    N        0.61389    0.49113    0.22505    1.000
    Si3568   Si       0.58148    0.50155    0.19551    1.000
    Si3569   Si       0.62262    0.44797    0.22909    1.000
    N3570    N        0.58466    0.43056    0.24177    1.000
    N3571    N        0.60318    0.38883    0.14286    1.000
    Si3572   Si       0.61787    0.38786    0.18414    1.000
    N3573    N        0.63591    0.42630    0.19372    1.000
    N3574    N        0.60775    0.31759    0.26202    1.000
    Si3575   Si       0.62415    0.26762    0.35173    1.000
    Si3576   Si       0.61726    0.36027    0.25788    1.000
    N3577    N        0.60678    0.26912    0.31138    1.000
    N3578    N        0.62372    0.37048    0.36744    1.000
    N3579    N        0.60861    0.30374    0.37187    1.000
    Si3580   Si       0.63370    0.29576    0.28822    1.000
    N3581    N        0.60265    0.38321    0.29270    1.000
    Si3582   Si       0.62039    0.39535    0.32949    1.000
    N3583    N        0.61219    0.48042    0.30275    1.000
    N3584    N        0.60385    0.42794    0.34881    1.000
    Si3585   Si       0.58177    0.45550    0.32592    1.000
    Si3586   Si       0.60893    0.26336    0.48407    1.000
    N3587    N        0.58034    0.29884    0.48286    1.000
    N3588    N        0.58226    0.35351    0.41704    1.000
    Si3589   Si       0.60048    0.33483    0.49515    1.000
    N3590    N        0.60913    0.42218    0.41832    1.000
    Si3591   Si       0.61590    0.38012    0.40783    1.000
    Si3592   Si       0.62359    0.44359    0.38393    1.000
    N3593    N        0.62302    0.48641    0.38174    1.000
    N3594    N        0.62729    0.41166    0.49156    1.000
    Si3595   Si       0.61136    0.43874    0.45917    1.000
    N3596    N        0.62958    0.47881    0.46208    1.000
    N3597    N        0.59896    0.34410    0.53685    1.000
    Si3598   Si       0.62371    0.34507    0.57297    1.000
    N3599    N        0.61369    0.35294    0.61447    1.000
    Si3600   Si       0.59562    0.25964    0.59455    1.000
    Si3601   Si       0.61256    0.43033    0.52758    1.000
    N3602    N        0.59416    0.46949    0.52376    1.000
    Si3603   Si       0.61408    0.50010    0.54650    1.000
    N3604    N        0.58257    0.40837    0.55075    1.000
    N3605    N        0.59794    0.28801    0.62650    1.000
    Si3606   Si       0.61032    0.34721    0.69789    1.000
    N3607    N        0.62608    0.34133    0.73710    1.000
    N3608    N        0.62530    0.31221    0.67344    1.000
    Si3609   Si       0.63313    0.31507    0.62982    1.000
    Si3610   Si       0.57929    0.29485    0.66700    1.000
    N3611    N        0.62507    0.38204    0.67767    1.000
    Si3612   Si       0.59910    0.50185    0.62443    1.000
    N3613    N        0.63082    0.47541    0.63876    1.000
    Si3614   Si       0.58086    0.43583    0.73272    1.000
    Si3615   Si       0.61621    0.39022    0.63526    1.000
    N3616    N        0.58503    0.41922    0.62769    1.000
    N3617    N        0.58796    0.45228    0.69333    1.000
    Si3618   Si       0.62628    0.47093    0.68366    1.000
    N3619    N        0.58725    0.39410    0.74338    1.000
    Si3620   Si       0.61883    0.34462    0.82417    1.000
    N3621    N        0.62230    0.30766    0.80055    1.000
    N3622    N        0.60837    0.32016    0.86226    1.000
    Si3623   Si       0.62603    0.28093    0.84117    1.000
    Si3624   Si       0.62922    0.38223    0.75397    1.000
    N3625    N        0.60442    0.45406    0.76495    1.000
    Si3626   Si       0.60629    0.46321    0.80878    1.000
    N3627    N        0.58330    0.43749    0.83528    1.000
    N3628    N        0.59189    0.50523    0.81080    1.000
    Si3629   Si       0.62683    0.32545    0.90089    1.000
    N3630    N        0.62082    0.36609    0.91347    1.000
    Si3631   Si       0.61328    0.30582    0.96995    1.000
    N3632    N        0.59957    0.30193    0.92813    1.000
    Si3633   Si       0.58495    0.26876    0.90179    1.000
    N3634    N        0.61176    0.34434    0.99083    1.000
    Si3635   Si       0.59163    0.39131    0.93344    1.000
    N3636    N        0.60547    0.48127    0.88789    1.000
    Si3637   Si       0.60030    0.43834    0.87529    1.000
    N3638    N        0.62232    0.41807    0.94949    1.000
    N3639    N        0.58652    0.47417    0.97476    1.000
    Si3640   Si       0.62441    0.45684    0.96973    1.000
    Si3641   Si       0.60643    0.54332    0.05909    1.000
    N3642    N        0.59268    0.51473    0.09218    1.000
    Si3643   Si       0.60974    0.59245    0.11453    1.000
    N3644    N        0.61163    0.51390    0.02839    1.000
    N3645    N        0.63129    0.57135    0.08042    1.000
    N3646    N        0.59855    0.63161    0.09998    1.000
    N3647    N        0.61316    0.65904    0.03817    1.000
    Si3648   Si       0.61748    0.72829    0.07648    1.000
    Si3649   Si       0.62910    0.65390    0.07660    1.000
    N3650    N        0.62982    0.72695    0.03528    1.000
    Si3651   Si       0.60250    0.73857    0.00236    1.000
    N3652    N        0.57916    0.69927    0.00081    1.000
    N3653    N        0.63445    0.69225    0.09422    1.000
    N3654    N        0.59816    0.53060    0.16777    1.000
    Si3655   Si       0.61134    0.56842    0.18080    1.000
    N3656    N        0.63341    0.58734    0.14923    1.000
    Si3657   Si       0.62691    0.52945    0.24341    1.000
    Si3658   Si       0.57693    0.53153    0.12791    1.000
    N3659    N        0.63369    0.56313    0.21750    1.000
    Si3660   Si       0.63017    0.75239    0.14471    1.000
    N3661    N        0.61646    0.65306    0.20814    1.000
    Si3662   Si       0.57760    0.63250    0.20994    1.000
    Si3663   Si       0.61159    0.57340    0.35342    1.000
    N3664    N        0.61458    0.59297    0.30882    1.000
    N3665    N        0.59773    0.54423    0.27118    1.000
    N3666    N        0.59365    0.53729    0.33904    1.000
    Si3667   Si       0.58774    0.58701    0.27766    1.000
    Si3668   Si       0.58951    0.51652    0.30235    1.000
    N3669    N        0.58047    0.62529    0.25625    1.000
    N3670    N        0.61867    0.68914    0.26875    1.000
    N3671    N        0.62268    0.71757    0.32755    1.000
    Si3672   Si       0.59054    0.70201    0.30208    1.000
    Si3673   Si       0.61847    0.64878    0.25225    1.000
    Si3674   Si       0.62034    0.75409    0.34810    1.000
    Si3675   Si       0.58643    0.51030    0.37338    1.000
    N3676    N        0.62855    0.55363    0.46254    1.000
    Si3677   Si       0.59119    0.54990    0.48649    1.000
    N3678    N        0.59398    0.60756    0.43038    1.000
    Si3679   Si       0.58900    0.62131    0.47210    1.000
    N3680    N        0.62051    0.54992    0.39436    1.000
    Si3681   Si       0.62686    0.57972    0.42586    1.000
    N3682    N        0.63136    0.62521    0.48546    1.000
    Si3683   Si       0.57985    0.62818    0.39424    1.000
    Si3684   Si       0.61986    0.74920    0.42864    1.000
    Si3685   Si       0.60062    0.70140    0.39210    1.000
    N3686    N        0.62822    0.73859    0.38746    1.000
    N3687    N        0.60990    0.65935    0.38511    1.000
    N3688    N        0.59594    0.71302    0.43398    1.000
    N3689    N        0.59409    0.58004    0.58503    1.000
    N3690    N        0.59556    0.53309    0.52509    1.000
    Si3691   Si       0.63065    0.59365    0.56066    1.000
    N3692    N        0.59412    0.51242    0.58262    1.000
    N3693    N        0.61319    0.62996    0.54679    1.000
    N3694    N        0.59555    0.74391    0.55546    1.000
    Si3695   Si       0.61516    0.73111    0.59133    1.000
    Si3696   Si       0.59206    0.70904    0.53007    1.000
    N3697    N        0.62758    0.69592    0.50899    1.000
    N3698    N        0.63315    0.69286    0.58449    1.000
    Si3699   Si       0.63466    0.65323    0.51998    1.000
    Si3700   Si       0.57467    0.63652    0.56364    1.000
    Si3701   Si       0.58960    0.60039    0.62381    1.000
    N3702    N        0.60011    0.53897    0.64760    1.000
    N3703    N        0.62483    0.60554    0.64673    1.000
    Si3704   Si       0.63380    0.54951    0.67195    1.000
    Si3705   Si       0.60895    0.67727    0.69185    1.000
    N3706    N        0.61038    0.63737    0.71202    1.000
    N3707    N        0.58816    0.74050    0.62760    1.000
    N3708    N        0.61071    0.70693    0.71994    1.000
    Si3709   Si       0.62496    0.74619    0.71740    1.000
    Si3710   Si       0.61573    0.53982    0.80066    1.000
    N3711    N        0.59425    0.57497    0.80998    1.000
    N3712    N        0.62759    0.53730    0.75779    1.000
    Si3713   Si       0.63258    0.59434    0.82298    1.000
    N3714    N        0.58038    0.58916    0.74985    1.000
    N3715    N        0.63161    0.59065    0.86672    1.000
    Si3716   Si       0.62440    0.57981    0.74661    1.000
    N3717    N        0.62644    0.63993    0.82281    1.000
    N3718    N        0.59027    0.73443    0.77820    1.000
    Si3719   Si       0.59722    0.73841    0.82161    1.000
    Si3720   Si       0.59722    0.66598    0.84266    1.000
    N3721    N        0.61015    0.70775    0.85074    1.000
    Si3722   Si       0.60465    0.69665    0.76172    1.000
    Si3723   Si       0.61869    0.56031    0.89529    1.000
    N3724    N        0.58792    0.58901    0.98663    1.000
    Si3725   Si       0.62248    0.62204    0.89575    1.000
    N3726    N        0.61417    0.59099    0.92764    1.000
    Si3727   Si       0.62893    0.58376    0.97140    1.000
    Si3728   Si       0.57780    0.60871    0.94731    1.000
    N3729    N        0.59533    0.64785    0.94887    1.000
    N3730    N        0.58934    0.64159    0.87942    1.000
    N3731    N        0.59417    0.71902    0.93688    1.000
    Si3732   Si       0.57869    0.68539    0.96071    1.000
    Si3733   Si       0.61891    0.80349    0.09344    1.000
    N3734    N        0.60440    0.83999    0.01326    1.000
    N3735    N        0.59271    0.87774    0.09449    1.000
    N3736    N        0.63087    0.76314    0.10012    1.000
    Si3737   Si       0.58286    0.87774    0.01007    1.000
    N3738    N        0.58070    0.80792    0.07493    1.000
    N3739    N        0.57631    0.77254    0.00114    1.000
    Si3740   Si       0.59563    0.95041    0.02017    1.000
    Si3741   Si       0.59932    0.91432    0.07182    1.000
    N3742    N        0.60689    0.90831    0.02878    1.000
    N3743    N        0.62744    0.93835    0.09596    1.000
    N3744    N        0.63242    0.97026    0.02903    1.000
    N3745    N        0.58900    0.76449    0.15284    1.000
    Si3746   Si       0.61362    0.86962    0.12919    1.000
    Si3747   Si       0.60296    0.76647    0.22897    1.000
    N3748    N        0.61737    0.82477    0.13198    1.000
    N3749    N        0.60796    0.80531    0.20349    1.000
    Si3750   Si       0.59201    0.80651    0.16441    1.000
    N3751    N        0.59262    0.88002    0.16398    1.000
    N3752    N        0.59444    0.98322    0.23577    1.000
    N3753    N        0.62381    0.99495    0.17904    1.000
    Si3754   Si       0.60616    0.91350    0.18972    1.000
    Si3755   Si       0.58573    0.98071    0.19482    1.000
    N3756    N        0.60878    0.90007    0.23310    1.000
    N3757    N        0.60796    0.83140    0.32014    1.000
    Si3758   Si       0.59881    0.82719    0.27712    1.000
    Si3759   Si       0.62308    0.86845    0.33792    1.000
    N3760    N        0.59016    0.78565    0.26718    1.000
    N3761    N        0.58155    0.77112    0.34620    1.000
    N3762    N        0.63565    0.83926    0.25636    1.000
    N3763    N        0.59623    0.89769    0.35661    1.000
    N3764    N        0.60704    0.94233    0.30189    1.000
    Si3765   Si       0.58328    0.93704    0.34130    1.000
    N3766    N        0.59657    0.97101    0.36560    1.000
    Si3767   Si       0.58152    0.95845    0.27013    1.000
    Si3768   Si       0.58684    0.87033    0.46299    1.000
    N3769    N        0.61594    0.84346    0.47643    1.000
    Si3770   Si       0.60527    0.80188    0.47883    1.000
    N3771    N        0.59911    0.78717    0.43831    1.000
    Si3772   Si       0.57722    0.87755    0.39118    1.000
    N3773    N        0.57737    0.83646    0.38031    1.000
    N3774    N        0.60002    0.89106    0.42644    1.000
    N3775    N        0.60486    0.96718    0.48245    1.000
    Si3776   Si       0.60520    0.78300    0.53454    1.000
    N3777    N        0.60711    0.87544    0.56441    1.000
    N3778    N        0.62696    0.77072    0.49908    1.000
    N3779    N        0.57336    0.80041    0.51101    1.000
    Si3780   Si       0.61273    0.98351    0.52307    1.000
    N3781    N        0.60142    0.94359    0.53854    1.000
    Si3782   Si       0.61248    0.91746    0.57037    1.000
    N3783    N        0.58227    0.92462    0.60326    1.000
    Si3784   Si       0.57810    0.93648    0.50145    1.000
    Si3785   Si       0.62150    0.76083    0.64562    1.000
    N3786    N        0.58432    0.84473    0.69665    1.000
    Si3787   Si       0.58415    0.82956    0.65625    1.000
    N3788    N        0.59013    0.86260    0.62703    1.000
    N3789    N        0.61796    0.80186    0.65649    1.000
    Si3790   Si       0.60438    0.81979    0.72488    1.000
    N3791    N        0.59297    0.77702    0.71892    1.000
    N3792    N        0.63245    0.95552    0.72279    1.000
    Si3793   Si       0.59222    0.90394    0.63904    1.000
    N3794    N        0.62727    0.91672    0.66067    1.000
    N3795    N        0.59092    0.90692    0.73020    1.000
    Si3796   Si       0.63178    0.91675    0.70420    1.000
    N3797    N        0.59818    0.78323    0.82846    1.000
    N3798    N        0.60706    0.85974    0.81573    1.000
    Si3799   Si       0.61211    0.81771    0.80805    1.000
    N3800    N        0.59751    0.81192    0.76760    1.000
    Si3801   Si       0.60168    0.86718    0.85824    1.000
    Si3802   Si       0.57756    0.77340    0.76138    1.000
    Si3803   Si       0.59776    0.88999    0.77489    1.000
    N3804    N        0.61299    0.92829    0.78912    1.000
    N3805    N        0.62607    0.96895    0.84740    1.000
    Si3806   Si       0.59837    0.94572    0.75013    1.000
    Si3807   Si       0.60491    0.00713    0.84055    1.000
    N3808    N        0.61684    0.83186    0.88002    1.000
    Si3809   Si       0.59039    0.81526    0.91228    1.000
    N3810    N        0.60862    0.81253    0.95230    1.000
    Si3811   Si       0.58252    0.81395    0.98662    1.000
    Si3812   Si       0.58813    0.91414    0.94948    1.000
    N3813    N        0.61512    0.90458    0.87007    1.000
    N3814    N        0.63170    0.90880    0.95185    1.000
    N3815    N        0.61246    0.96013    0.90966    1.000
    Si3816   Si       0.58851    0.93440    0.88191    1.000
    Si3817   Si       0.60309    0.97823    0.94775    1.000
    N3818    N        0.58451    0.94976    0.97743    1.000
    N3819    N        0.67534    0.07891    0.09951    1.000
    N3820    N        0.65840    0.11905    0.03986    1.000
    Si3821   Si       0.64425    0.09653    0.07536    1.000
    N3822    N        0.68590    0.01580    0.01130    1.000
    N3823    N        0.66654    0.17150    0.10414    1.000
    Si3824   Si       0.66895    0.20205    0.07248    1.000
    N3825    N        0.69221    0.18710    0.03889    1.000
    N3826    N        0.68907    0.23928    0.08156    1.000
    Si3827   Si       0.67005    0.19249    0.00210    1.000
    N3828    N        0.63660    0.22106    0.01005    1.000
    Si3829   Si       0.67469    0.08018    0.14497    1.000
    N3830    N        0.67219    0.12276    0.15577    1.000
    N3831    N        0.64014    0.11188    0.21802    1.000
    Si3832   Si       0.66666    0.22993    0.18849    1.000
    N3833    N        0.65330    0.18694    0.17109    1.000
    Si3834   Si       0.68008    0.16427    0.14408    1.000
    Si3835   Si       0.66355    0.14077    0.19692    1.000
    N3836    N        0.67050    0.06875    0.27631    1.000
    N3837    N        0.68022    0.07105    0.34529    1.000
    Si3838   Si       0.68093    0.09596    0.30857    1.000
    Si3839   Si       0.65974    0.02813    0.28175    1.000
    Si3840   Si       0.68306    0.02802    0.35190    1.000
    Si3841   Si       0.64065    0.09814    0.25872    1.000
    N3842    N        0.65228    0.12628    0.29228    1.000
    N3843    N        0.68077    0.00882    0.31410    1.000
    N3844    N        0.68778    0.15510    0.33625    1.000
    N3845    N        0.66921    0.18918    0.26659    1.000
    Si3846   Si       0.68276    0.22365    0.34394    1.000
    N3847    N        0.64805    0.20504    0.33049    1.000
    Si3848   Si       0.65534    0.17060    0.30481    1.000
    Si3849   Si       0.66293    0.23088    0.25073    1.000
    N3850    N        0.65626    0.07306    0.40922    1.000
    N3851    N        0.65827    0.11647    0.46131    1.000
    Si3852   Si       0.68515    0.09141    0.38376    1.000
    N3853    N        0.65734    0.01441    0.44676    1.000
    Si3854   Si       0.64002    0.03168    0.41323    1.000
    N3855    N        0.68311    0.13184    0.39808    1.000
    N3856    N        0.65442    0.01025    0.37821    1.000
    Si3857   Si       0.69067    0.00950    0.47362    1.000
    N3858    N        0.69269    0.20214    0.37895    1.000
    Si3859   Si       0.66867    0.16603    0.37490    1.000
    Si3860   Si       0.68331    0.14710    0.44080    1.000
    N3861    N        0.68913    0.23819    0.45750    1.000
    Si3862   Si       0.65024    0.21749    0.45654    1.000
    N3863    N        0.65342    0.17782    0.43649    1.000
    N3864    N        0.68310    0.04608    0.57229    1.000
    Si3865   Si       0.66212    0.10480    0.50298    1.000
    Si3866   Si       0.63989    0.04382    0.55490    1.000
    N3867    N        0.64178    0.06939    0.51920    1.000
    N3868    N        0.69013    0.12296    0.57684    1.000
    Si3869   Si       0.69185    0.01259    0.54472    1.000
    Si3870   Si       0.64940    0.13552    0.57146    1.000
    Si3871   Si       0.65673    0.20832    0.57801    1.000
    N3872    N        0.68088    0.22362    0.61084    1.000
    Si3873   Si       0.66520    0.17564    0.51023    1.000
    N3874    N        0.68295    0.19549    0.54458    1.000
    N3875    N        0.64650    0.13992    0.52693    1.000
    N3876    N        0.63659    0.17273    0.59260    1.000
    Si3877   Si       0.65799    0.11945    0.67574    1.000
    N3878    N        0.65576    0.07471    0.67615    1.000
    Si3879   Si       0.68929    0.04854    0.68043    1.000
    N3880    N        0.65803    0.13245    0.63554    1.000
    N3881    N        0.66318    0.25556    0.67234    1.000
    N3882    N        0.64032    0.20317    0.72404    1.000
    Si3883   Si       0.65156    0.21305    0.68385    1.000
    N3884    N        0.69366    0.20167    0.67436    1.000
    N3885    N        0.66240    0.13491    0.74621    1.000
    Si3886   Si       0.66341    0.10902    0.78250    1.000
    N3887    N        0.67458    0.06703    0.78111    1.000
    Si3888   Si       0.64286    0.03868    0.78434    1.000
    Si3889   Si       0.64928    0.04546    0.86543    1.000
    N3890    N        0.69569    0.13341    0.79795    1.000
    N3891    N        0.63821    0.03285    0.82653    1.000
    N3892    N        0.67426    0.23437    0.78042    1.000
    N3893    N        0.66164    0.21191    0.85426    1.000
    Si3894   Si       0.68232    0.23681    0.82521    1.000
    Si3895   Si       0.64074    0.23802    0.75316    1.000
    Si3896   Si       0.63117    0.10320    0.90646    1.000
    N3897    N        0.66927    0.01260    0.88894    1.000
    N3898    N        0.66094    0.08593    0.87890    1.000
    N3899    N        0.66306    0.12806    0.92840    1.000
    N3900    N        0.67226    0.07517    0.97953    1.000
    Si3901   Si       0.68859    0.10666    0.95512    1.000
    N3902    N        0.64338    0.16061    0.98574    1.000
    Si3903   Si       0.64960    0.22259    0.89559    1.000
    N3904    N        0.68283    0.24037    0.91841    1.000
    N3905    N        0.67226    0.28088    0.02565    1.000
    Si3906   Si       0.67478    0.27870    0.06838    1.000
    Si3907   Si       0.64656    0.35445    0.01342    1.000
    N3908    N        0.67374    0.37171    0.10919    1.000
    Si3909   Si       0.63930    0.26268    0.00355    1.000
    N3910    N        0.64393    0.34052    0.05496    1.000
    Si3911   Si       0.65511    0.38040    0.07068    1.000
    Si3912   Si       0.64809    0.48780    0.03335    1.000
    Si3913   Si       0.67690    0.46216    0.10212    1.000
    N3914    N        0.65681    0.39464    0.02886    1.000
    Si3915   Si       0.67976    0.42761    0.01119    1.000
    N3916    N        0.64641    0.47082    0.07305    1.000
    N3917    N        0.64184    0.45278    0.01017    1.000
    N3918    N        0.69525    0.49920    0.11356    1.000
    N3919    N        0.66786    0.26980    0.16960    1.000
    N3920    N        0.65340    0.36316    0.18133    1.000
    Si3921   Si       0.66073    0.34624    0.14253    1.000
    Si3922   Si       0.67615    0.35457    0.21534    1.000
    N3923    N        0.68604    0.31223    0.22243    1.000
    Si3924   Si       0.67245    0.43933    0.17366    1.000
    N3925    N        0.65548    0.44139    0.13449    1.000
    N3926    N        0.68773    0.47744    0.18467    1.000
    N3927    N        0.65205    0.31749    0.32108    1.000
    N3928    N        0.66525    0.27123    0.26932    1.000
    Si3929   Si       0.68801    0.29940    0.34312    1.000
    N3930    N        0.65937    0.37239    0.25213    1.000
    N3931    N        0.66734    0.26366    0.35103    1.000
    Si3932   Si       0.63891    0.33098    0.36149    1.000
    N3933    N        0.65356    0.44432    0.25945    1.000
    Si3934   Si       0.67274    0.40659    0.27554    1.000
    N3935    N        0.65985    0.41021    0.31843    1.000
    Si3936   Si       0.65329    0.47720    0.28899    1.000
    N3937    N        0.68427    0.47676    0.32203    1.000
    Si3938   Si       0.68571    0.43653    0.34187    1.000
    N3939    N        0.67831    0.32645    0.37834    1.000
    Si3940   Si       0.67023    0.31015    0.48459    1.000
    N3941    N        0.68990    0.30926    0.44527    1.000
    N3942    N        0.63973    0.34133    0.48340    1.000
    N3943    N        0.65329    0.37918    0.42846    1.000
    Si3944   Si       0.65171    0.38161    0.47357    1.000
    N3945    N        0.69332    0.38560    0.48490    1.000
    Si3946   Si       0.68179    0.40610    0.41110    1.000
    N3947    N        0.66585    0.42990    0.38030    1.000
    N3948    N        0.69165    0.43728    0.43857    1.000
    Si3949   Si       0.65312    0.27441    0.55146    1.000
    Si3950   Si       0.68202    0.33368    0.59052    1.000
    N3951    N        0.66085    0.36551    0.56734    1.000
    N3952    N        0.64685    0.30771    0.58066    1.000
    N3953    N        0.64339    0.27909    0.50862    1.000
    Si3954   Si       0.67834    0.46342    0.54504    1.000
    Si3955   Si       0.66654    0.40719    0.57962    1.000
    N3956    N        0.64771    0.43463    0.55205    1.000
    N3957    N        0.65582    0.50144    0.54383    1.000
    N3958    N        0.65289    0.40904    0.62089    1.000
    Si3959   Si       0.65592    0.29190    0.69596    1.000
    N3960    N        0.67555    0.33036    0.63186    1.000
    N3961    N        0.64937    0.27787    0.73681    1.000
    N3962    N        0.69294    0.31624    0.70055    1.000
    Si3963   Si       0.66362    0.44700    0.63880    1.000
    N3964    N        0.65924    0.44105    0.68204    1.000
    N3965    N        0.66257    0.40461    0.73648    1.000
    Si3966   Si       0.66172    0.40216    0.69221    1.000
    N3967    N        0.63956    0.51066    0.69519    1.000
    Si3968   Si       0.67788    0.35653    0.80409    1.000
    N3969    N        0.67062    0.27669    0.83838    1.000
    N3970    N        0.68218    0.32851    0.76958    1.000
    Si3971   Si       0.68553    0.31110    0.85991    1.000
    N3972    N        0.66146    0.34387    0.84319    1.000
    Si3973   Si       0.64339    0.31130    0.76274    1.000
    N3974    N        0.63740    0.37302    0.79527    1.000
    N3975    N        0.64891    0.46052    0.82142    1.000
    Si3976   Si       0.67026    0.44673    0.85813    1.000
    Si3977   Si       0.68247    0.47185    0.79686    1.000
    N3978    N        0.67207    0.47880    0.75400    1.000
    Si3979   Si       0.68946    0.43830    0.74655    1.000
    N3980    N        0.67941    0.34550    0.98412    1.000
    N3981    N        0.66941    0.31067    0.90153    1.000
    Si3982   Si       0.67978    0.28369    0.93310    1.000
    N3983    N        0.65290    0.28376    0.96623    1.000
    Si3984   Si       0.69354    0.30491    0.99520    1.000
    Si3985   Si       0.64715    0.40018    0.91736    1.000
    N3986    N        0.68262    0.48211    0.88449    1.000
    N3987    N        0.65119    0.48473    0.94867    1.000
    N3988    N        0.64220    0.42674    0.88233    1.000
    Si3989   Si       0.64427    0.48910    0.90447    1.000
    N3990    N        0.68901    0.38785    0.91741    1.000
    Si3991   Si       0.67100    0.58811    0.07137    1.000
    N3992    N        0.68029    0.51614    0.03618    1.000
    Si3993   Si       0.68690    0.55121    0.00753    1.000
    N3994    N        0.67686    0.58681    0.02863    1.000
    Si3995   Si       0.67924    0.62562    0.00967    1.000
    N3996    N        0.66451    0.63020    0.08229    1.000
    N3997    N        0.67978    0.67089    0.01933    1.000
    Si3998   Si       0.64163    0.69008    0.01498    1.000
    Si3999   Si       0.66427    0.59068    0.23247    1.000
    N4000    N        0.68347    0.60561    0.19624    1.000
    Si4001   Si       0.66711    0.61419    0.15730    1.000
    N4002    N        0.64121    0.74707    0.23501    1.000
    N4003    N        0.67215    0.69164    0.21592    1.000
    N4004    N        0.64001    0.71397    0.16002    1.000
    Si4005   Si       0.65887    0.68778    0.12797    1.000
    N4006    N        0.65314    0.65328    0.15332    1.000
    Si4007   Si       0.64281    0.68081    0.18629    1.000
    N4008    N        0.67351    0.53533    0.35472    1.000
    Si4009   Si       0.65333    0.61543    0.30409    1.000
    N4010    N        0.64946    0.61999    0.25944    1.000
    Si4011   Si       0.68392    0.57878    0.35655    1.000
    N4012    N        0.66054    0.51574    0.26887    1.000
    N4013    N        0.64485    0.59885    0.36701    1.000
    N4014    N        0.69217    0.59772    0.31805    1.000
    N4015    N        0.68226    0.70949    0.35924    1.000
    N4016    N        0.65196    0.65280    0.32716    1.000
    Si4017   Si       0.65958    0.69640    0.32328    1.000
    N4018    N        0.68062    0.70592    0.28642    1.000
    Si4019   Si       0.65191    0.70923    0.25213    1.000
    Si4020   Si       0.64720    0.64239    0.36832    1.000
    N4021    N        0.66641    0.59588    0.43888    1.000
    Si4022   Si       0.65156    0.51900    0.38773    1.000
    Si4023   Si       0.66175    0.59147    0.48315    1.000
    Si4024   Si       0.65247    0.51686    0.46117    1.000
    N4025    N        0.68697    0.53020    0.48778    1.000
    N4026    N        0.67236    0.50851    0.42263    1.000
    Si4027   Si       0.69591    0.61914    0.41633    1.000
    Si4028   Si       0.67230    0.74608    0.37474    1.000
    N4029    N        0.68321    0.65127    0.38950    1.000
    Si4030   Si       0.64616    0.73257    0.49113    1.000
    N4031    N        0.65640    0.73873    0.45004    1.000
    N4032    N        0.66034    0.59103    0.59231    1.000
    Si4033   Si       0.67489    0.53812    0.52971    1.000
    N4034    N        0.65365    0.57572    0.52600    1.000
    N4035    N        0.67452    0.65751    0.54054    1.000
    Si4036   Si       0.67107    0.67189    0.58276    1.000
    N4037    N        0.68590    0.73132    0.50894    1.000
    N4038    N        0.68990    0.65333    0.61675    1.000
    N4039    N        0.68532    0.61451    0.67368    1.000
    Si4040   Si       0.68866    0.57623    0.70231    1.000
    Si4041   Si       0.66947    0.59752    0.63393    1.000
    N4042    N        0.67251    0.55794    0.65368    1.000
    Si4043   Si       0.65700    0.51798    0.73480    1.000
    N4044    N        0.69335    0.54046    0.72746    1.000
    N4045    N        0.64249    0.58060    0.70631    1.000
    Si4046   Si       0.64116    0.62145    0.68472    1.000
    Si4047   Si       0.68571    0.67582    0.65396    1.000
    N4048    N        0.64388    0.66883    0.66907    1.000
    Si4049   Si       0.69196    0.74716    0.67044    1.000
    N4050    N        0.64862    0.75276    0.68096    1.000
    N4051    N        0.65085    0.55311    0.82023    1.000
    N4052    N        0.64896    0.60121    0.77587    1.000
    Si4053   Si       0.69222    0.61018    0.77416    1.000
    N4054    N        0.66003    0.73951    0.82586    1.000
    Si4055   Si       0.66405    0.73109    0.78390    1.000
    N4056    N        0.67859    0.67935    0.85127    1.000
    Si4057   Si       0.66184    0.66410    0.81192    1.000
    Si4058   Si       0.65270    0.71486    0.86252    1.000
    N4059    N        0.64387    0.69139    0.78261    1.000
    N4060    N        0.64986    0.75600    0.75157    1.000
    N4061    N        0.64685    0.53364    0.90945    1.000
    N4062    N        0.65786    0.55109    0.97680    1.000
    Si4063   Si       0.66971    0.52428    0.94553    1.000
    N4064    N        0.65212    0.61996    0.97544    1.000
    N4065    N        0.64217    0.68990    0.97139    1.000
    N4066    N        0.65252    0.64791    0.91088    1.000
    Si4067   Si       0.68931    0.65671    0.88666    1.000
    N4068    N        0.65868    0.72681    0.90661    1.000
    Si4069   Si       0.63923    0.65251    0.95130    1.000
    Si4070   Si       0.63694    0.72460    0.94507    1.000
    N4071    N        0.63387    0.75365    0.97466    1.000
    N4072    N        0.64690    0.82604    0.06880    1.000
    Si4073   Si       0.64490    0.83836    0.02693    1.000
    N4074    N        0.66562    0.87457    0.01419    1.000
    N4075    N        0.66468    0.80607    0.00487    1.000
    Si4076   Si       0.68843    0.82662    0.07964    1.000
    Si4077   Si       0.65450    0.95528    0.06399    1.000
    Si4078   Si       0.66616    0.91958    0.10922    1.000
    N4079    N        0.67490    0.91767    0.06686    1.000
    Si4080   Si       0.64875    0.99812    0.00146    1.000
    N4081    N        0.68515    0.98337    0.07063    1.000
    Si4082   Si       0.69869    0.99127    0.11184    1.000
    N4083    N        0.67869    0.80497    0.22577    1.000
    Si4084   Si       0.66202    0.82131    0.14920    1.000
    N4085    N        0.66030    0.85031    0.18119    1.000
    N4086    N        0.65632    0.78106    0.16662    1.000
    Si4087   Si       0.64294    0.82586    0.21357    1.000
    Si4088   Si       0.67008    0.76553    0.20458    1.000
    N4089    N        0.65505    0.88349    0.12918    1.000
    N4090    N        0.69531    0.82569    0.12290    1.000
    N4091    N        0.66570    0.00721    0.24210    1.000
    N4092    N        0.64379    0.92765    0.17582    1.000
    N4093    N        0.68775    0.94971    0.13025    1.000
    N4094    N        0.69437    0.97756    0.18639    1.000
    Si4095   Si       0.65805    0.96989    0.16233    1.000
    Si4096   Si       0.67098    0.89146    0.17033    1.000
    N4097    N        0.66456    0.00725    0.13212    1.000
    Si4098   Si       0.66951    0.81634    0.33797    1.000
    N4099    N        0.65548    0.85115    0.35923    1.000
    N4100    N        0.65743    0.77561    0.34507    1.000
    Si4101   Si       0.68283    0.84048    0.25837    1.000
    N4102    N        0.69000    0.82625    0.29911    1.000
    N4103    N        0.67641    0.88462    0.24824    1.000
    Si4104   Si       0.63608    0.88389    0.26122    1.000
    N4105    N        0.65815    0.94369    0.35518    1.000
    Si4106   Si       0.64650    0.93059    0.31493    1.000
    N4107    N        0.67849    0.94506    0.28946    1.000
    N4108    N        0.64028    0.88890    0.30356    1.000
    Si4109   Si       0.65305    0.86599    0.48790    1.000
    N4110    N        0.69250    0.85723    0.46960    1.000
    Si4111   Si       0.64006    0.97451    0.45903    1.000
    Si4112   Si       0.63836    0.91085    0.42866    1.000
    N4113    N        0.67420    0.89741    0.40579    1.000
    N4114    N        0.63972    0.95264    0.42180    1.000
    N4115    N        0.65038    0.90695    0.47044    1.000
    Si4116   Si       0.63739    0.97090    0.38137    1.000
    N4117    N        0.67513    0.96996    0.48615    1.000
    Si4118   Si       0.68520    0.92782    0.48796    1.000
    Si4119   Si       0.68903    0.92786    0.37826    1.000
    N4120    N        0.66490    0.86468    0.53025    1.000
    Si4121   Si       0.66435    0.79212    0.58690    1.000
    N4122    N        0.66970    0.83523    0.59595    1.000
    Si4123   Si       0.64162    0.84786    0.56157    1.000
    N4124    N        0.64348    0.76070    0.60766    1.000
    N4125    N        0.63495    0.80556    0.55466    1.000
    N4126    N        0.64869    0.92419    0.59211    1.000
    N4127    N        0.64806    0.00246    0.54294    1.000
    Si4128   Si       0.65248    0.79934    0.67998    1.000
    Si4129   Si       0.66800    0.85582    0.73365    1.000
    N4130    N        0.64646    0.82408    0.71409    1.000
    N4131    N        0.69422    0.79108    0.66818    1.000
    N4132    N        0.66919    0.01020    0.69243    1.000
    N4133    N        0.69038    0.89285    0.64349    1.000
    N4134    N        0.68396    0.95918    0.64000    1.000
    Si4135   Si       0.66834    0.99769    0.65043    1.000
    N4136    N        0.66688    0.89365    0.71075    1.000
    Si4137   Si       0.66055    0.92265    0.63297    1.000
    Si4138   Si       0.63959    0.00044    0.72394    1.000
    N4139    N        0.65746    0.82568    0.82248    1.000
    Si4140   Si       0.64899    0.86282    0.80312    1.000
    Si4141   Si       0.65892    0.82318    0.86652    1.000
    N4142    N        0.67547    0.78360    0.87357    1.000
    N4143    N        0.69376    0.83693    0.76190    1.000
    Si4144   Si       0.69323    0.76324    0.84110    1.000
    N4145    N        0.63647    0.86913    0.76236    1.000
    N4146    N        0.66498    0.89565    0.82394    1.000
    N4147    N        0.67980    0.95134    0.80771    1.000
    Si4148   Si       0.69045    0.98011    0.77884    1.000
    N4149    N        0.65925    0.00653    0.76150    1.000
    Si4150   Si       0.64296    0.93590    0.82218    1.000
    Si4151   Si       0.64433    0.79441    0.96794    1.000
    N4152    N        0.67469    0.79138    0.93737    1.000
    N4153    N        0.68742    0.84715    0.88777    1.000
    N4154    N        0.68718    0.85883    0.95427    1.000
    Si4155   Si       0.69513    0.82757    0.92566    1.000
    Si4156   Si       0.68729    0.76017    0.90825    1.000
    N4157    N        0.69182    0.92484    0.96781    1.000
    Si4158   Si       0.64722    0.97428    0.88570    1.000
    Si4159   Si       0.66580    0.88870    0.97446    1.000
    N4160    N        0.67613    0.94580    0.90376    1.000
    N4161    N        0.64428    0.97733    0.96320    1.000
    Si4162   Si       0.65825    0.94068    0.94281    1.000
    N4163    N        0.72383    0.02721    0.08692    1.000
    Si4164   Si       0.71400    0.06985    0.08351    1.000
    N4165    N        0.70983    0.07452    0.03807    1.000
    N4166    N        0.74197    0.09246    0.10367    1.000
    Si4167   Si       0.70291    0.05341    0.00035    1.000
    Si4168   Si       0.70104    0.11682    0.02794    1.000
    Si4169   Si       0.71126    0.00952    0.04724    1.000
    N4170    N        0.75072    0.01357    0.02829    1.000
    Si4171   Si       0.75723    0.01843    0.11543    1.000
    N4172    N        0.73516    0.13382    0.05016    1.000
    Si4173   Si       0.73406    0.17732    0.04466    1.000
    Si4174   Si       0.73185    0.23528    0.08590    1.000
    N4175    N        0.74809    0.19459    0.08423    1.000
    Si4176   Si       0.74369    0.08089    0.14545    1.000
    Si4177   Si       0.71509    0.01650    0.17243    1.000
    N4178    N        0.70854    0.05613    0.15538    1.000
    N4179    N        0.73373    0.01862    0.21053    1.000
    N4180    N        0.75593    0.10725    0.17681    1.000
    Si4181   Si       0.70249    0.18415    0.23984    1.000
    Si4182   Si       0.73524    0.24480    0.21658    1.000
    N4183    N        0.72267    0.17054    0.15196    1.000
    Si4184   Si       0.74752    0.19645    0.13130    1.000
    Si4185   Si       0.73709    0.14515    0.18621    1.000
    N4186    N        0.74100    0.23956    0.12939    1.000
    N4187    N        0.70262    0.14967    0.21266    1.000
    N4188    N        0.69766    0.22233    0.21808    1.000
    N4189    N        0.72242    0.10710    0.30771    1.000
    N4190    N        0.72342    0.01580    0.36408    1.000
    Si4191   Si       0.72901    0.14359    0.33017    1.000
    N4192    N        0.71742    0.22281    0.32049    1.000
    N4193    N        0.74191    0.19248    0.25744    1.000
    Si4194   Si       0.74885    0.20718    0.29768    1.000
    N4195    N        0.72728    0.08086    0.39074    1.000
    Si4196   Si       0.74514    0.11681    0.40767    1.000
    Si4197   Si       0.75093    0.04886    0.37461    1.000
    N4198    N        0.75210    0.06556    0.47049    1.000
    N4199    N        0.72733    0.13349    0.44247    1.000
    N4200    N        0.74240    0.20337    0.43245    1.000
    N4201    N        0.75339    0.13772    0.36795    1.000
    Si4202   Si       0.73193    0.14027    0.48723    1.000
    Si4203   Si       0.72243    0.20978    0.46998    1.000
    Si4204   Si       0.73008    0.21626    0.39308    1.000
    N4205    N        0.70262    0.17299    0.48422    1.000
    Si4206   Si       0.70799    0.05077    0.60585    1.000
    Si4207   Si       0.72116    0.11648    0.54914    1.000
    Si4208   Si       0.72876    0.06777    0.50642    1.000
    N4209    N        0.70558    0.10932    0.50849    1.000
    N4210    N        0.70519    0.03050    0.50843    1.000
    N4211    N        0.74439    0.07963    0.54517    1.000
    N4212    N        0.74562    0.03293    0.59456    1.000
    N4213    N        0.74045    0.20936    0.57928    1.000
    Si4214   Si       0.71574    0.24392    0.59056    1.000
    Si4215   Si       0.72701    0.19553    0.53928    1.000
    N4216    N        0.74086    0.15284    0.53508    1.000
    N4217    N        0.74362    0.22136    0.50541    1.000
    Si4218   Si       0.69756    0.12487    0.61971    1.000
    N4219    N        0.71875    0.08760    0.62728    1.000
    N4220    N        0.72284    0.06664    0.69840    1.000
    Si4221   Si       0.73426    0.10921    0.70123    1.000
    N4222    N        0.70019    0.02726    0.64141    1.000
    N4223    N        0.69722    0.13287    0.68674    1.000
    Si4224   Si       0.73882    0.01325    0.65610    1.000
    N4225    N        0.73646    0.11738    0.74457    1.000
    N4226    N        0.72548    0.15830    0.62727    1.000
    N4227    N        0.75356    0.17421    0.69343    1.000
    Si4228   Si       0.71805    0.16631    0.67040    1.000
    Si4229   Si       0.69685    0.23768    0.64882    1.000
    Si4230   Si       0.71387    0.04887    0.78701    1.000
    N4231    N        0.73638    0.08088    0.80971    1.000
    Si4232   Si       0.72899    0.12161    0.82535    1.000
    N4233    N        0.74474    0.04930    0.75680    1.000
    N4234    N        0.72229    0.12365    0.86758    1.000
    N4235    N        0.71575    0.00853    0.80097    1.000
    N4236    N        0.72668    0.05425    0.87348    1.000
    Si4237   Si       0.75162    0.19355    0.82931    1.000
    Si4238   Si       0.71475    0.22166    0.77242    1.000
    N4239    N        0.72282    0.22193    0.81566    1.000
    Si4240   Si       0.70440    0.14517    0.75641    1.000
    N4241    N        0.72236    0.18410    0.75153    1.000
    N4242    N        0.75241    0.23674    0.75168    1.000
    N4243    N        0.74071    0.01451    0.92808    1.000
    Si4244   Si       0.71351    0.01670    0.89282    1.000
    N4245    N        0.74105    0.06257    0.98338    1.000
    N4246    N        0.71500    0.08417    0.92864    1.000
    Si4247   Si       0.70407    0.08886    0.88864    1.000
    Si4248   Si       0.74729    0.05753    0.94076    1.000
    N4249    N        0.72936    0.17229    0.93007    1.000
    N4250    N        0.74832    0.19004    0.87310    1.000
    N4251    N        0.70807    0.13169    0.98687    1.000
    N4252    N        0.74776    0.24240    0.92431    1.000
    Si4253   Si       0.72609    0.16718    0.97303    1.000
    Si4254   Si       0.71352    0.21433    0.93270    1.000
    N4255    N        0.70054    0.20401    0.97429    1.000
    Si4256   Si       0.74212    0.15237    0.89364    1.000
    N4257    N        0.73032    0.31289    0.01771    1.000
    Si4258   Si       0.74238    0.30481    0.05759    1.000
    N4259    N        0.70638    0.30841    0.08149    1.000
    Si4260   Si       0.72370    0.33275    0.11808    1.000
    Si4261   Si       0.73356    0.43475    0.05919    1.000
    N4262    N        0.74132    0.39538    0.04665    1.000
    Si4263   Si       0.72384    0.49579    0.01850    1.000
    N4264    N        0.70811    0.45573    0.02895    1.000
    N4265    N        0.70396    0.43057    0.09323    1.000
    N4266    N        0.74101    0.37514    0.11954    1.000
    N4267    N        0.73587    0.27659    0.18844    1.000
    N4268    N        0.71635    0.37211    0.21841    1.000
    N4269    N        0.69880    0.32863    0.15249    1.000
    Si4270   Si       0.69814    0.29641    0.18247    1.000
    Si4271   Si       0.70475    0.50600    0.15675    1.000
    N4272    N        0.74467    0.49318    0.17080    1.000
    Si4273   Si       0.70593    0.39873    0.12295    1.000
    N4274    N        0.74193    0.43631    0.22015    1.000
    Si4275   Si       0.72750    0.47427    0.20564    1.000
    N4276    N        0.70760    0.41596    0.16460    1.000
    N4277    N        0.72490    0.49998    0.23843    1.000
    Si4278   Si       0.73445    0.40191    0.19374    1.000
    N4279    N        0.72192    0.32862    0.27956    1.000
    N4280    N        0.73153    0.30014    0.33900    1.000
    Si4281   Si       0.71999    0.36548    0.25892    1.000
    Si4282   Si       0.70100    0.29491    0.25701    1.000
    N4283    N        0.73822    0.26792    0.25397    1.000
    Si4284   Si       0.75220    0.32415    0.31052    1.000
    N4285    N        0.72773    0.42677    0.34460    1.000
    N4286    N        0.71527    0.39958    0.28221    1.000
    Si4287   Si       0.74554    0.40296    0.31248    1.000
    Si4288   Si       0.75152    0.45820    0.36408    1.000
    Si4289   Si       0.74669    0.28913    0.37706    1.000
    N4290    N        0.74328    0.31756    0.40801    1.000
    Si4291   Si       0.71137    0.27158    0.43988    1.000
    Si4292   Si       0.70352    0.33656    0.41286    1.000
    N4293    N        0.74816    0.27679    0.46460    1.000
    N4294    N        0.72401    0.25782    0.40075    1.000
    N4295    N        0.75413    0.34881    0.46584    1.000
    N4296    N        0.71624    0.37854    0.41269    1.000
    Si4297   Si       0.72444    0.35665    0.49593    1.000
    Si4298   Si       0.75170    0.38705    0.43783    1.000
    N4299    N        0.72160    0.48582    0.37490    1.000
    Si4300   Si       0.70285    0.47722    0.41695    1.000
    Si4301   Si       0.70739    0.42814    0.47662    1.000
    N4302    N        0.74773    0.41654    0.46958    1.000
    N4303    N        0.73113    0.48809    0.44848    1.000
    Si4304   Si       0.72063    0.30007    0.54545    1.000
    N4305    N        0.72268    0.31864    0.58394    1.000
    N4306    N        0.74793    0.37030    0.52806    1.000
    N4307    N        0.70348    0.32013    0.51051    1.000
    Si4308   Si       0.74269    0.30249    0.61903    1.000
    N4309    N        0.69619    0.26365    0.55731    1.000
    N4310    N        0.75243    0.50760    0.50867    1.000
    N4311    N        0.71382    0.47930    0.56496    1.000
    N4312    N        0.70868    0.41411    0.57841    1.000
    Si4313   Si       0.73820    0.47091    0.52927    1.000
    Si4314   Si       0.73487    0.43113    0.60857    1.000
    Si4315   Si       0.74474    0.39904    0.55885    1.000
    N4316    N        0.70145    0.45388    0.51034    1.000
    N4317    N        0.72614    0.26261    0.62739    1.000
    N4318    N        0.73279    0.36614    0.73397    1.000
    N4319    N        0.74156    0.33358    0.65100    1.000
    Si4320   Si       0.71232    0.32664    0.74032    1.000
    Si4321   Si       0.70092    0.33989    0.66488    1.000
    N4322    N        0.69562    0.38011    0.68067    1.000
    Si4323   Si       0.73794    0.48430    0.64414    1.000
    N4324    N        0.72372    0.43436    0.71945    1.000
    Si4325   Si       0.74965    0.46861    0.71805    1.000
    N4326    N        0.73852    0.49540    0.74861    1.000
    N4327    N        0.73803    0.49561    0.68521    1.000
    Si4328   Si       0.73021    0.39471    0.70317    1.000
    N4329    N        0.70639    0.45252    0.63605    1.000
    N4330    N        0.71713    0.36787    0.81661    1.000
    N4331    N        0.72841    0.31351    0.85632    1.000
    Si4332   Si       0.74966    0.35412    0.84553    1.000
    N4333    N        0.74941    0.30576    0.75191    1.000
    N4334    N        0.70901    0.42464    0.85552    1.000
    Si4335   Si       0.72670    0.41162    0.81713    1.000
    N4336    N        0.70538    0.43690    0.78767    1.000
    N4337    N        0.70365    0.50825    0.80815    1.000
    Si4338   Si       0.74314    0.50690    0.79013    1.000
    Si4339   Si       0.70012    0.37338    0.95703    1.000
    N4340    N        0.74027    0.35440    0.95440    1.000
    N4341    N        0.71500    0.29281    0.95650    1.000
    N4342    N        0.74504    0.37090    0.88627    1.000
    Si4343   Si       0.75510    0.28187    0.94115    1.000
    Si4344   Si       0.72029    0.40505    0.89375    1.000
    N4345    N        0.69909    0.41341    0.97540    1.000
    Si4346   Si       0.73373    0.43437    0.96283    1.000
    N4347    N        0.74025    0.43838    0.91967    1.000
    N4348    N        0.74496    0.47528    0.97918    1.000
    Si4349   Si       0.69951    0.52108    0.07555    1.000
    N4350    N        0.69945    0.56047    0.08972    1.000
    N4351    N        0.73798    0.50806    0.05845    1.000
    N4352    N        0.72564    0.53606    0.99848    1.000
    Si4353   Si       0.74890    0.73415    0.02677    1.000
    N4354    N        0.74383    0.63823    0.08415    1.000
    Si4355   Si       0.70378    0.64284    0.10096    1.000
    N4356    N        0.74147    0.69250    0.03681    1.000
    Si4357   Si       0.72205    0.67432    0.00283    1.000
    N4358    N        0.70131    0.68344    0.11552    1.000
    N4359    N        0.71636    0.75228    0.00347    1.000
    N4360    N        0.75274    0.57830    0.20768    1.000
    N4361    N        0.70112    0.61275    0.13210    1.000
    Si4362   Si       0.71844    0.57283    0.12905    1.000
    Si4363   Si       0.71126    0.57020    0.20095    1.000
    N4364    N        0.70707    0.54834    0.16307    1.000
    N4365    N        0.69546    0.56241    0.24215    1.000
    N4366    N        0.70740    0.74745    0.19650    1.000
    Si4367   Si       0.71342    0.70421    0.20527    1.000
    N4368    N        0.73257    0.69312    0.24118    1.000
    N4369    N        0.74308    0.69661    0.17301    1.000
    Si4370   Si       0.73487    0.70318    0.13112    1.000
    N4371    N        0.72478    0.74624    0.12612    1.000
    Si4372   Si       0.73201    0.61628    0.31672    1.000
    N4373    N        0.74015    0.54724    0.34786    1.000
    Si4374   Si       0.70070    0.52616    0.26300    1.000
    N4375    N        0.72914    0.51812    0.29637    1.000
    Si4376   Si       0.70865    0.51055    0.33812    1.000
    Si4377   Si       0.72307    0.69535    0.28104    1.000
    N4378    N        0.73086    0.65759    0.30220    1.000
    N4379    N        0.74507    0.75146    0.36073    1.000
    Si4380   Si       0.75169    0.57803    0.37348    1.000
    Si4381   Si       0.72775    0.52196    0.47643    1.000
    Si4382   Si       0.73725    0.59910    0.46692    1.000
    N4383    N        0.71181    0.59003    0.38927    1.000
    N4384    N        0.74765    0.55700    0.45624    1.000
    N4385    N        0.72989    0.63267    0.43828    1.000
    N4386    N        0.70352    0.60373    0.49528    1.000
    N4387    N        0.70805    0.69712    0.43165    1.000
    Si4388   Si       0.69977    0.73850    0.44036    1.000
    Si4389   Si       0.70719    0.68659    0.38864    1.000
    Si4390   Si       0.73096    0.67081    0.45917    1.000
    N4391    N        0.73749    0.74482    0.46377    1.000
    Si4392   Si       0.73278    0.51485    0.58061    1.000
    N4393    N        0.70800    0.54479    0.55832    1.000
    N4394    N        0.72107    0.61907    0.56538    1.000
    Si4395   Si       0.70240    0.58379    0.57954    1.000
    N4396    N        0.71620    0.59001    0.62006    1.000
    Si4397   Si       0.72604    0.63202    0.60748    1.000
    Si4398   Si       0.70683    0.63265    0.52622    1.000
    Si4399   Si       0.69629    0.69503    0.52932    1.000
    Si4400   Si       0.71143    0.73096    0.60106    1.000
    N4401    N        0.69940    0.70364    0.57116    1.000
    N4402    N        0.72100    0.67064    0.50222    1.000
    N4403    N        0.74925    0.75554    0.53155    1.000
    N4404    N        0.72823    0.52010    0.62167    1.000
    N4405    N        0.70258    0.60683    0.73285    1.000
    Si4406   Si       0.71790    0.55581    0.64406    1.000
    N4407    N        0.73053    0.56648    0.68399    1.000
    Si4408   Si       0.73398    0.53191    0.71620    1.000
    Si4409   Si       0.71755    0.62959    0.69913    1.000
    N4410    N        0.69320    0.71691    0.63857    1.000
    N4411    N        0.74839    0.67718    0.74309    1.000
    N4412    N        0.71471    0.67074    0.68595    1.000
    Si4413   Si       0.74203    0.69795    0.70411    1.000
    N4414    N        0.72665    0.73795    0.69472    1.000
    N4415    N        0.70814    0.58147    0.80281    1.000
    N4416    N        0.70767    0.54482    0.86620    1.000
    Si4417   Si       0.75212    0.58288    0.80268    1.000
    Si4418   Si       0.72848    0.58195    0.87398    1.000
    Si4419   Si       0.69360    0.54798    0.82520    1.000
    Si4420   Si       0.72361    0.68335    0.77875    1.000
    N4421    N        0.70710    0.72364    0.77239    1.000
    Si4422   Si       0.72473    0.69620    0.85323    1.000
    N4423    N        0.72075    0.73833    0.86178    1.000
    N4424    N        0.74725    0.69242    0.81603    1.000
    N4425    N        0.69636    0.64984    0.79003    1.000
    Si4426   Si       0.73374    0.75790    0.77650    1.000
    N4427    N        0.70535    0.61769    0.87792    1.000
    Si4428   Si       0.74531    0.51800    0.96128    1.000
    N4429    N        0.71157    0.52200    0.93434    1.000
    Si4430   Si       0.71425    0.51040    0.89119    1.000
    N4431    N        0.72132    0.62942    0.00007    1.000
    N4432    N        0.73276    0.69696    0.96918    1.000
    Si4433   Si       0.74872    0.68525    0.92944    1.000
    Si4434   Si       0.73685    0.74153    0.96658    1.000
    N4435    N        0.72576    0.67982    0.89315    1.000
    N4436    N        0.72741    0.75012    0.92557    1.000
    N4437    N        0.71066    0.85992    0.06254    1.000
    Si4438   Si       0.73647    0.77066    0.09050    1.000
    N4439    N        0.71358    0.79603    0.06126    1.000
    Si4440   Si       0.70284    0.79329    0.01809    1.000
    N4441    N        0.72991    0.82679    0.00532    1.000
    Si4442   Si       0.74372    0.84104    0.04372    1.000
    N4443    N        0.73148    0.91129    0.02314    1.000
    Si4444   Si       0.69660    0.89265    0.04044    1.000
    Si4445   Si       0.73589    0.82746    0.13831    1.000
    N4446    N        0.72902    0.80490    0.17433    1.000
    Si4447   Si       0.72145    0.80902    0.21681    1.000
    Si4448   Si       0.73197    0.76205    0.16464    1.000
    N4449    N        0.72593    0.84336    0.24383    1.000
    N4450    N        0.75080    0.78210    0.23377    1.000
    N4451    N        0.71081    0.90663    0.17635    1.000
    Si4452   Si       0.72075    0.95154    0.16279    1.000
    N4453    N        0.71424    0.94215    0.23253    1.000
    N4454    N        0.73220    0.99191    0.14059    1.000
    Si4455   Si       0.70501    0.98732    0.22923    1.000
    Si4456   Si       0.73988    0.91680    0.20763    1.000
    Si4457   Si       0.72842    0.82593    0.31967    1.000
    N4458    N        0.71007    0.81931    0.35953    1.000
    N4459    N        0.74869    0.78966    0.30805    1.000
    Si4460   Si       0.75589    0.86773    0.26138    1.000
    N4461    N        0.73263    0.89847    0.28333    1.000
    Si4462   Si       0.70751    0.97567    0.30103    1.000
    N4463    N        0.73810    0.95510    0.32498    1.000
    N4464    N        0.70806    0.89748    0.35156    1.000
    Si4465   Si       0.74104    0.90354    0.32446    1.000
    N4466    N        0.72944    0.99362    0.26834    1.000
    Si4467   Si       0.70012    0.91797    0.26367    1.000
    Si4468   Si       0.74034    0.97563    0.36357    1.000
    Si4469   Si       0.72799    0.78611    0.38029    1.000
    N4470    N        0.72601    0.86512    0.40523    1.000
    Si4471   Si       0.72431    0.83684    0.48935    1.000
    N4472    N        0.69852    0.76404    0.40506    1.000
    Si4473   Si       0.69306    0.86416    0.37625    1.000
    N4474    N        0.70985    0.79926    0.50147    1.000
    Si4475   Si       0.70338    0.88474    0.43745    1.000
    N4476    N        0.72623    0.99955    0.44988    1.000
    N4477    N        0.71837    0.95656    0.39493    1.000
    N4478    N        0.71643    0.92162    0.45578    1.000
    Si4479   Si       0.73266    0.95795    0.43587    1.000
    N4480    N        0.74071    0.85624    0.52757    1.000
    N4481    N        0.70463    0.77246    0.58525    1.000
    Si4482   Si       0.74719    0.77085    0.57258    1.000
    Si4483   Si       0.69747    0.86088    0.61616    1.000
    Si4484   Si       0.70459    0.87791    0.54157    1.000
    Si4485   Si       0.71969    0.75833    0.50244    1.000
    N4486    N        0.71335    0.88388    0.58306    1.000
    N4487    N        0.72370    0.98322    0.55380    1.000
    N4488    N        0.70337    0.91979    0.52409    1.000
    Si4489   Si       0.73657    0.94781    0.53268    1.000
    Si4490   Si       0.75123    0.99171    0.59014    1.000
    N4491    N        0.71721    0.85046    0.70287    1.000
    Si4492   Si       0.72615    0.82148    0.67022    1.000
    N4493    N        0.73381    0.83864    0.63137    1.000
    Si4494   Si       0.73306    0.82774    0.74024    1.000
    N4495    N        0.74042    0.78409    0.74206    1.000
    Si4496   Si       0.73766    0.96184    0.71267    1.000
    Si4497   Si       0.72280    0.93968    0.64621    1.000
    N4498    N        0.74050    0.00177    0.69604    1.000
    Si4499   Si       0.70342    0.89025    0.68734    1.000
    N4500    N        0.72484    0.93054    0.68675    1.000
    N4501    N        0.74734    0.97583    0.63383    1.000
    N4502    N        0.72172    0.85074    0.82668    1.000
    N4503    N        0.71143    0.78094    0.80819    1.000
    Si4504   Si       0.71917    0.86827    0.86615    1.000
    Si4505   Si       0.75383    0.86789    0.80357    1.000
    Si4506   Si       0.69663    0.82289    0.80317    1.000
    N4507    N        0.71350    0.95946    0.74766    1.000
    N4508    N        0.71819    0.91049    0.85906    1.000
    N4509    N        0.73086    0.90363    0.78700    1.000
    Si4510   Si       0.74332    0.99000    0.82679    1.000
    N4511    N        0.72196    0.98338    0.86443    1.000
    Si4512   Si       0.70222    0.91665    0.81807    1.000
    Si4513   Si       0.74814    0.93864    0.76907    1.000
    N4514    N        0.73690    0.82232    0.93624    1.000
    Si4515   Si       0.72903    0.85036    0.96784    1.000
    N4516    N        0.75432    0.88607    0.96139    1.000
    Si4517   Si       0.71408    0.94641    0.88520    1.000
    Si4518   Si       0.73597    0.92104    0.97999    1.000
    N4519    N        0.74840    0.94435    0.91249    1.000
    N4520    N        0.78367    0.07824    0.05010    1.000
    Si4521   Si       0.76619    0.11205    0.07339    1.000
    Si4522   Si       0.76808    0.05312    0.01673    1.000
    N4523    N        0.79495    0.14566    0.07883    1.000
    Si4524   Si       0.79006    0.18757    0.09159    1.000
    N4525    N        0.75637    0.18070    0.00287    1.000
    N4526    N        0.81313    0.22196    0.07860    1.000
    Si4527   Si       0.79715    0.11699    0.19362    1.000
    N4528    N        0.77505    0.04894    0.14007    1.000
    N4529    N        0.81456    0.09287    0.22647    1.000
    N4530    N        0.79878    0.00241    0.23635    1.000
    Si4531   Si       0.77781    0.18708    0.23144    1.000
    N4532    N        0.77039    0.22271    0.20803    1.000
    N4533    N        0.77617    0.15889    0.19854    1.000
    Si4534   Si       0.80560    0.24731    0.20016    1.000
    Si4535   Si       0.80679    0.18112    0.17464    1.000
    N4536    N        0.78915    0.18748    0.13562    1.000
    N4537    N        0.78892    0.11043    0.29191    1.000
    N4538    N        0.76855    0.05693    0.33687    1.000
    Si4539   Si       0.80444    0.03370    0.32632    1.000
    Si4540   Si       0.80403    0.07890    0.26554    1.000
    N4541    N        0.76604    0.05676    0.26585    1.000
    Si4542   Si       0.75635    0.08098    0.30149    1.000
    Si4543   Si       0.75980    0.01794    0.24690    1.000
    N4544    N        0.76250    0.16988    0.31686    1.000
    Si4545   Si       0.79801    0.15140    0.29717    1.000
    N4546    N        0.77845    0.23881    0.30083    1.000
    Si4547   Si       0.78492    0.16650    0.35999    1.000
    Si4548   Si       0.79183    0.23659    0.34340    1.000
    N4549    N        0.80728    0.17026    0.25876    1.000
    N4550    N        0.76999    0.20935    0.36966    1.000
    N4551    N        0.77414    0.03119    0.40828    1.000
    Si4552   Si       0.78478    0.09402    0.46851    1.000
    N4553    N        0.78376    0.10683    0.42629    1.000
    Si4554   Si       0.75862    0.02830    0.44803    1.000
    N4555    N        0.79637    0.00973    0.46695    1.000
    N4556    N        0.77696    0.13110    0.49162    1.000
    Si4557   Si       0.78655    0.20207    0.41866    1.000
    N4558    N        0.80151    0.19529    0.45986    1.000
    N4559    N        0.80276    0.16646    0.40015    1.000
    Si4560   Si       0.80863    0.15951    0.48055    1.000
    Si4561   Si       0.77131    0.05993    0.57313    1.000
    N4562    N        0.78168    0.08806    0.60638    1.000
    Si4563   Si       0.80762    0.11803    0.59226    1.000
    N4564    N        0.81150    0.11262    0.54968    1.000
    Si4565   Si       0.78586    0.14704    0.53868    1.000
    N4566    N        0.78870    0.16021    0.58281    1.000
    Si4567   Si       0.75714    0.18098    0.60860    1.000
    Si4568   Si       0.75427    0.03961    0.71486    1.000
    N4569    N        0.77289    0.10425    0.68012    1.000
    N4570    N        0.79623    0.05004    0.71718    1.000
    N4571    N        0.76978    0.04207    0.65633    1.000
    Si4572   Si       0.75931    0.08179    0.64238    1.000
    Si4573   Si       0.80743    0.03735    0.67662    1.000
    N4574    N        0.78932    0.19252    0.63676    1.000
    Si4575   Si       0.79345    0.18250    0.67875    1.000
    N4576    N        0.79814    0.21420    0.70841    1.000
    Si4577   Si       0.76305    0.19292    0.73289    1.000
    N4578    N        0.78925    0.08987    0.85105    1.000
    N4579    N        0.77293    0.02127    0.83270    1.000
    N4580    N        0.80038    0.08651    0.78065    1.000
    Si4581   Si       0.75756    0.08772    0.76928    1.000
    Si4582   Si       0.75759    0.06208    0.84278    1.000
    N4583    N        0.79168    0.20380    0.81333    1.000
    Si4584   Si       0.79613    0.16351    0.79698    1.000
    Si4585   Si       0.80053    0.24514    0.82694    1.000
    N4586    N        0.79185    0.16482    0.75263    1.000
    N4587    N        0.75825    0.15139    0.81613    1.000
    N4588    N        0.77414    0.25426    0.86075    1.000
    Si4589   Si       0.79824    0.09656    0.89434    1.000
    N4590    N        0.78550    0.07194    0.92743    1.000
    N4591    N        0.80411    0.06093    0.99352    1.000
    N4592    N        0.80226    0.20135    0.91100    1.000
    N4593    N        0.80639    0.23185    0.97358    1.000
    N4594    N        0.78165    0.13575    0.90349    1.000
    Si4595   Si       0.79606    0.19251    0.98933    1.000
    Si4596   Si       0.76934    0.22259    0.89272    1.000
    N4597    N        0.81198    0.16136    0.96577    1.000
    Si4598   Si       0.77771    0.37150    0.04346    1.000
    N4599    N        0.77280    0.33518    0.06955    1.000
    Si4600   Si       0.79219    0.32375    0.10668    1.000
    N4601    N        0.78208    0.35702    0.00355    1.000
    Si4602   Si       0.79906    0.26338    0.07092    1.000
    N4603    N        0.75630    0.26482    0.06585    1.000
    N4604    N        0.77025    0.45234    0.07126    1.000
    Si4605   Si       0.77508    0.49499    0.07590    1.000
    Si4606   Si       0.80522    0.42894    0.08136    1.000
    N4607    N        0.80996    0.39872    0.05147    1.000
    N4608    N        0.78420    0.50214    0.11642    1.000
    N4609    N        0.79877    0.27306    0.16762    1.000
    N4610    N        0.80843    0.35464    0.13006    1.000
    Si4611   Si       0.75969    0.27307    0.15181    1.000
    N4612    N        0.75685    0.30804    0.12460    1.000
    N4613    N        0.81156    0.26774    0.24020    1.000
    N4614    N        0.80137    0.40502    0.24306    1.000
    Si4615   Si       0.78347    0.50550    0.15799    1.000
    Si4616   Si       0.78140    0.38683    0.13679    1.000
    N4617    N        0.80347    0.42274    0.12441    1.000
    N4618    N        0.77383    0.39160    0.17923    1.000
    Si4619   Si       0.81090    0.38977    0.20377    1.000
    N4620    N        0.78670    0.47534    0.24700    1.000
    N4621    N        0.78906    0.30743    0.29042    1.000
    Si4622   Si       0.77923    0.27167    0.26927    1.000
    Si4623   Si       0.80546    0.36673    0.33887    1.000
    N4624    N        0.76402    0.36405    0.32408    1.000
    N4625    N        0.78569    0.27567    0.36644    1.000
    N4626    N        0.77472    0.43041    0.29451    1.000
    N4627    N        0.79264    0.47216    0.35316    1.000
    Si4628   Si       0.80567    0.44053    0.32606    1.000
    N4629    N        0.80382    0.40774    0.35420    1.000
    Si4630   Si       0.77234    0.43348    0.25010    1.000
    N4631    N        0.80515    0.30947    0.42715    1.000
    Si4632   Si       0.76529    0.31369    0.44452    1.000
    N4633    N        0.79224    0.38055    0.41954    1.000
    N4634    N        0.81032    0.32821    0.50052    1.000
    N4635    N        0.80694    0.25706    0.49294    1.000
    Si4636   Si       0.81360    0.48634    0.39048    1.000
    N4637    N        0.76466    0.44128    0.40400    1.000
    Si4638   Si       0.76823    0.46575    0.44070    1.000
    N4639    N        0.78989    0.49957    0.42415    1.000
    Si4640   Si       0.80141    0.41702    0.39756    1.000
    N4641    N        0.79799    0.45559    0.47108    1.000
    Si4642   Si       0.78103    0.42462    0.49814    1.000
    N4643    N        0.78451    0.29977    0.60726    1.000
    Si4644   Si       0.79299    0.30311    0.56568    1.000
    Si4645   Si       0.79087    0.35936    0.52352    1.000
    N4646    N        0.76339    0.28556    0.53782    1.000
    N4647    N        0.80101    0.34647    0.56301    1.000
    Si4648   Si       0.80108    0.37657    0.59500    1.000
    Si4649   Si       0.76400    0.25941    0.50303    1.000
    N4650    N        0.76065    0.43453    0.53519    1.000
    Si4651   Si       0.79534    0.49075    0.60433    1.000
    N4652    N        0.76334    0.39795    0.59842    1.000
    N4653    N        0.81100    0.39714    0.51331    1.000
    N4654    N        0.76415    0.46400    0.61615    1.000
    N4655    N        0.80873    0.27800    0.72890    1.000
    N4656    N        0.80825    0.35675    0.63525    1.000
    Si4657   Si       0.77033    0.34347    0.74070    1.000
    N4658    N        0.78846    0.33903    0.70137    1.000
    Si4659   Si       0.77673    0.35560    0.66472    1.000
    N4660    N        0.81279    0.39929    0.73265    1.000
    Si4661   Si       0.79840    0.41864    0.69581    1.000
    N4662    N        0.76577    0.39541    0.67907    1.000
    N4663    N        0.79069    0.46136    0.70983    1.000
    N4664    N        0.78646    0.32789    0.84432    1.000
    N4665    N        0.79290    0.27592    0.79664    1.000
    Si4666   Si       0.77549    0.27153    0.75493    1.000
    N4667    N        0.80304    0.34252    0.76731    1.000
    Si4668   Si       0.80454    0.31734    0.80424    1.000
    N4669    N        0.76752    0.39784    0.82608    1.000
    N4670    N        0.76475    0.47658    0.81146    1.000
    Si4671   Si       0.80252    0.41821    0.83847    1.000
    Si4672   Si       0.80710    0.47855    0.80122    1.000
    N4673    N        0.80905    0.50004    0.76337    1.000
    Si4674   Si       0.76589    0.29622    0.86747    1.000
    N4675    N        0.77605    0.30774    0.91109    1.000
    N4676    N        0.77682    0.29191    0.97729    1.000
    Si4677   Si       0.76638    0.35166    0.91857    1.000
    N4678    N        0.79971    0.37679    0.92555    1.000
    Si4679   Si       0.75592    0.32919    0.98706    1.000
    Si4680   Si       0.77055    0.46281    0.90099    1.000
    N4681    N        0.75776    0.50219    0.89265    1.000
    Si4682   Si       0.79730    0.38292    0.96947    1.000
    N4683    N        0.77143    0.41722    0.97334    1.000
    Si4684   Si       0.78690    0.45888    0.97563    1.000
    N4685    N        0.80002    0.46681    0.93485    1.000
    N4686    N        0.79536    0.43703    0.87709    1.000
    Si4687   Si       0.77347    0.60830    0.09600    1.000
    N4688    N        0.78570    0.57943    0.06649    1.000
    N4689    N        0.80492    0.51298    0.04865    1.000
    N4690    N        0.80899    0.63156    0.10470    1.000
    N4691    N        0.77018    0.69563    0.10559    1.000
    N4692    N        0.80196    0.66603    0.04562    1.000
    Si4693   Si       0.76385    0.67222    0.06639    1.000
    Si4694   Si       0.80912    0.71105    0.11979    1.000
    N4695    N        0.76491    0.75450    0.06066    1.000
    N4696    N        0.75929    0.58413    0.13047    1.000
    N4697    N        0.80678    0.60835    0.16907    1.000
    Si4698   Si       0.77742    0.57921    0.16989    1.000
    N4699    N        0.79850    0.54258    0.17444    1.000
    N4700    N        0.80911    0.59524    0.23653    1.000
    N4701    N        0.80176    0.65943    0.21172    1.000
    N4702    N        0.79307    0.72459    0.22341    1.000
    Si4703   Si       0.78436    0.69438    0.19226    1.000
    N4704    N        0.78238    0.53942    0.26935    1.000
    N4705    N        0.80060    0.55882    0.33068    1.000
    Si4706   Si       0.76189    0.54694    0.31032    1.000
    Si4707   Si       0.79319    0.60171    0.31894    1.000
    N4708    N        0.76244    0.61480    0.34931    1.000
    N4709    N        0.75879    0.59075    0.29018    1.000
    Si4710   Si       0.75946    0.50269    0.26588    1.000
    Si4711   Si       0.77175    0.57677    0.24795    1.000
    Si4712   Si       0.76597    0.75387    0.32227    1.000
    Si4713   Si       0.78936    0.72243    0.26886    1.000
    N4714    N        0.80367    0.73912    0.34597    1.000
    N4715    N        0.81232    0.66014    0.35241    1.000
    Si4716   Si       0.77413    0.64965    0.37250    1.000
    N4717    N        0.75428    0.72171    0.29425    1.000
    N4718    N        0.78389    0.56178    0.39792    1.000
    Si4719   Si       0.78456    0.54178    0.43660    1.000
    N4720    N        0.77976    0.61265    0.47495    1.000
    Si4721   Si       0.80102    0.58316    0.49667    1.000
    N4722    N        0.80409    0.73784    0.49151    1.000
    N4723    N        0.78768    0.74061    0.41546    1.000
    Si4724   Si       0.79353    0.64433    0.44883    1.000
    Si4725   Si       0.77371    0.72236    0.37751    1.000
    N4726    N        0.79907    0.63746    0.40750    1.000
    N4727    N        0.77370    0.68313    0.45715    1.000
    Si4728   Si       0.77707    0.72605    0.45681    1.000
    N4729    N        0.74977    0.68357    0.37835    1.000
    N4730    N        0.78635    0.56663    0.53420    1.000
    Si4731   Si       0.78736    0.52330    0.53014    1.000
    N4732    N        0.77473    0.50874    0.57013    1.000
    N4733    N        0.80930    0.61440    0.58185    1.000
    N4734    N        0.75585    0.73544    0.59769    1.000
    Si4735   Si       0.80208    0.64881    0.60595    1.000
    Si4736   Si       0.79657    0.72669    0.59501    1.000
    N4737    N        0.80979    0.68632    0.58530    1.000
    N4738    N        0.81193    0.75328    0.55984    1.000
    N4739    N        0.79918    0.51548    0.63906    1.000
    N4740    N        0.80387    0.57812    0.66730    1.000
    N4741    N        0.76164    0.62362    0.69873    1.000
    Si4742   Si       0.77235    0.58172    0.69302    1.000
    N4743    N        0.77435    0.54946    0.72263    1.000
    N4744    N        0.77854    0.69082    0.67908    1.000
    Si4745   Si       0.80940    0.71994    0.67540    1.000
    N4746    N        0.79676    0.74938    0.70503    1.000
    Si4747   Si       0.77083    0.64134    0.74215    1.000
    Si4748   Si       0.78141    0.64989    0.66529    1.000
    N4749    N        0.76157    0.64744    0.62497    1.000
    N4750    N        0.76255    0.61235    0.77318    1.000
    Si4751   Si       0.79524    0.54268    0.75884    1.000
    Si4752   Si       0.79898    0.59072    0.85931    1.000
    N4753    N        0.76615    0.54390    0.79031    1.000
    N4754    N        0.75737    0.58957    0.84433    1.000
    Si4755   Si       0.80976    0.61036    0.77902    1.000
    Si4756   Si       0.78130    0.71843    0.81152    1.000
    N4757    N        0.78594    0.73548    0.85217    1.000
    N4758    N        0.77492    0.75561    0.79112    1.000
    Si4759   Si       0.77630    0.60826    0.92190    1.000
    Si4760   Si       0.78110    0.53846    0.90697    1.000
    N4761    N        0.78439    0.53258    0.95222    1.000
    N4762    N        0.79616    0.62473    0.88700    1.000
    N4763    N        0.75637    0.57314    0.90683    1.000
    N4764    N        0.81275    0.55157    0.87770    1.000
    Si4765   Si       0.75518    0.74457    0.88995    1.000
    N4766    N        0.77526    0.74059    0.99078    1.000
    N4767    N        0.77920    0.71260    0.91056    1.000
    N4768    N        0.75855    0.64297    0.93823    1.000
    N4769    N        0.77806    0.86655    0.04616    1.000
    N4770    N        0.76021    0.79850    0.11512    1.000
    Si4771   Si       0.80558    0.76997    0.06698    1.000
    Si4772   Si       0.79856    0.95278    0.08371    1.000
    Si4773   Si       0.77426    0.97835    0.01246    1.000
    N4774    N        0.78252    0.94962    0.04241    1.000
    N4775    N        0.77933    0.91619    0.09313    1.000
    N4776    N        0.78554    0.99244    0.09960    1.000
    Si4777   Si       0.76547    0.90832    0.05076    1.000
    Si4778   Si       0.79411    0.78058    0.13720    1.000
    Si4779   Si       0.78245    0.76510    0.20994    1.000
    N4780    N        0.75902    0.86297    0.13747    1.000
    N4781    N        0.77585    0.75869    0.16903    1.000
    Si4782   Si       0.79137    0.88564    0.12097    1.000
    Si4783   Si       0.80515    0.91219    0.24252    1.000
    N4784    N        0.76970    0.89457    0.22890    1.000
    Si4785   Si       0.80240    0.94134    0.17160    1.000
    N4786    N        0.76031    0.94460    0.17869    1.000
    Si4787   Si       0.77070    0.79575    0.26955    1.000
    Si4788   Si       0.79756    0.87243    0.31235    1.000
    N4789    N        0.78360    0.83588    0.26986    1.000
    N4790    N        0.79936    0.76428    0.27848    1.000
    N4791    N        0.75538    0.86041    0.32415    1.000
    N4792    N        0.79029    0.91322    0.32616    1.000
    Si4793   Si       0.78295    0.95442    0.32412    1.000
    N4794    N        0.79477    0.99473    0.30858    1.000
    N4795    N        0.78344    0.96281    0.36830    1.000
    N4796    N        0.75742    0.84212    0.46244    1.000
    N4797    N        0.75863    0.80296    0.40598    1.000
    Si4798   Si       0.75815    0.84327    0.41939    1.000
    N4799    N        0.79386    0.86025    0.40265    1.000
    Si4800   Si       0.79518    0.82988    0.47584    1.000
    Si4801   Si       0.79550    0.78161    0.41344    1.000
    N4802    N        0.77657    0.94977    0.43616    1.000
    Si4803   Si       0.79499    0.96557    0.47136    1.000
    Si4804   Si       0.80433    0.94783    0.40377    1.000
    N4805    N        0.78271    0.86755    0.58225    1.000
    N4806    N        0.78860    0.80794    0.51365    1.000
    Si4807   Si       0.77593    0.83657    0.54674    1.000
    Si4808   Si       0.77283    0.83489    0.61239    1.000
    N4809    N        0.76773    0.80731    0.57877    1.000
    Si4810   Si       0.79115    0.76483    0.52299    1.000
    N4811    N        0.79287    0.98221    0.59158    1.000
    N4812    N        0.76429    0.93060    0.56122    1.000
    N4813    N        0.77170    0.95405    0.50549    1.000
    Si4814   Si       0.79899    0.94682    0.53971    1.000
    Si4815   Si       0.75270    0.89854    0.58762    1.000
    N4816    N        0.79527    0.85307    0.71265    1.000
    N4817    N        0.76357    0.79996    0.68030    1.000
    N4818    N        0.80402    0.83638    0.64089    1.000
    Si4819   Si       0.79808    0.82553    0.68151    1.000
    Si4820   Si       0.75591    0.76567    0.70555    1.000
    N4821    N        0.80565    0.93766    0.66776    1.000
    N4822    N        0.75340    0.91679    0.62541    1.000
    Si4823   Si       0.78663    0.94834    0.62536    1.000
    N4824    N        0.77239    0.94506    0.73475    1.000
    Si4825   Si       0.78667    0.79968    0.78301    1.000
    Si4826   Si       0.80169    0.77662    0.85561    1.000
    N4827    N        0.76031    0.83434    0.77666    1.000
    N4828    N        0.80309    0.80818    0.82352    1.000
    Si4829   Si       0.79318    0.87376    0.86954    1.000
    N4830    N        0.78176    0.88943    0.82932    1.000
    N4831    N        0.79844    0.95720    0.85971    1.000
    Si4832   Si       0.79459    0.93290    0.82521    1.000
    N4833    N        0.76220    0.95642    0.80539    1.000
    Si4834   Si       0.80779    0.99882    0.84726    1.000
    N4835    N        0.75639    0.85255    0.88405    1.000
    N4836    N        0.78007    0.78254    0.89390    1.000
    Si4837   Si       0.77091    0.81976    0.91142    1.000
    N4838    N        0.80171    0.83735    0.93837    1.000
    Si4839   Si       0.79231    0.88007    0.94126    1.000
    Si4840   Si       0.76316    0.97742    0.94014    1.000
    N4841    N        0.75341    0.95995    0.97861    1.000
    Si4842   Si       0.79118    0.94013    0.89958    1.000
    N4843    N        0.79990    0.89904    0.90403    1.000
    N4844    N        0.80463    0.97277    0.92657    1.000
    N4845    N        0.85280    0.07950    0.06875    1.000
    N4846    N        0.83266    0.11889    0.02167    1.000
    Si4847   Si       0.82728    0.07660    0.03241    1.000
    N4848    N        0.86181    0.05405    0.01223    1.000
    Si4849   Si       0.86739    0.04288    0.09079    1.000
    N4850    N        0.84008    0.03188    0.12117    1.000
    N4851    N        0.86323    0.15293    0.07099    1.000
    Si4852   Si       0.83599    0.22419    0.04071    1.000
    Si4853   Si       0.82560    0.15028    0.04948    1.000
    N4854    N        0.81894    0.18597    0.02623    1.000
    Si4855   Si       0.85112    0.07406    0.21447    1.000
    N4856    N        0.83401    0.04337    0.18842    1.000
    Si4857   Si       0.85622    0.12665    0.16619    1.000
    N4858    N        0.81915    0.10142    0.15738    1.000
    Si4859   Si       0.81717    0.05808    0.15005    1.000
    Si4860   Si       0.84859    0.16502    0.23659    1.000
    N4861    N        0.83054    0.21630    0.18487    1.000
    N4862    N        0.83676    0.15274    0.19326    1.000
    Si4863   Si       0.87286    0.22313    0.19736    1.000
    N4864    N        0.82959    0.03347    0.36094    1.000
    N4865    N        0.82511    0.04943    0.29052    1.000
    Si4866   Si       0.86623    0.03701    0.28144    1.000
    Si4867   Si       0.85810    0.13538    0.35555    1.000
    N4868    N        0.83264    0.23077    0.33355    1.000
    N4869    N        0.82194    0.15130    0.33557    1.000
    Si4870   Si       0.86691    0.20330    0.33715    1.000
    N4871    N        0.87112    0.25295    0.27562    1.000
    N4872    N        0.87028    0.13370    0.25979    1.000
    N4873    N        0.81624    0.07412    0.48871    1.000
    Si4874   Si       0.81606    0.02335    0.40175    1.000
    Si4875   Si       0.82963    0.03796    0.46864    1.000
    N4876    N        0.83815    0.05096    0.42773    1.000
    N4877    N        0.84890    0.11025    0.39030    1.000
    Si4878   Si       0.86731    0.07822    0.41194    1.000
    Si4879   Si       0.81851    0.13007    0.41422    1.000
    N4880    N        0.86761    0.22179    0.46591    1.000
    N4881    N        0.83509    0.13645    0.45439    1.000
    Si4882   Si       0.82491    0.23117    0.46314    1.000
    N4883    N        0.81109    0.24097    0.42139    1.000
    Si4884   Si       0.82810    0.07714    0.53199    1.000
    N4885    N        0.85758    0.01515    0.59885    1.000
    N4886    N        0.80841    0.04496    0.55717    1.000
    Si4887   Si       0.82349    0.00777    0.57397    1.000
    N4888    N        0.86159    0.02502    0.49616    1.000
    N4889    N        0.81764    0.17253    0.52240    1.000
    N4890    N        0.84074    0.20798    0.58594    1.000
    Si4891   Si       0.84708    0.18681    0.54848    1.000
    Si4892   Si       0.82090    0.17749    0.60931    1.000
    Si4893   Si       0.85814    0.03442    0.63962    1.000
    N4894    N        0.83778    0.10436    0.72534    1.000
    N4895    N        0.83546    0.06875    0.66398    1.000
    Si4896   Si       0.81633    0.10264    0.68639    1.000
    N4897    N        0.83180    0.13522    0.62202    1.000
    Si4898   Si       0.82675    0.14872    0.73205    1.000
    N4899    N        0.82095    0.14917    0.68818    1.000
    N4900    N        0.86255    0.21947    0.70445    1.000
    Si4901   Si       0.82854    0.23861    0.72433    1.000
    Si4902   Si       0.85304    0.14382    0.65760    1.000
    N4903    N        0.86851    0.18009    0.64239    1.000
    N4904    N        0.84701    0.06513    0.82751    1.000
    N4905    N        0.85402    0.04571    0.76104    1.000
    Si4906   Si       0.85717    0.03145    0.80168    1.000
    Si4907   Si       0.81963    0.09788    0.81830    1.000
    Si4908   Si       0.82185    0.06918    0.74711    1.000
    N4909    N        0.83032    0.14077    0.81304    1.000
    N4910    N        0.84909    0.23176    0.76494    1.000
    N4911    N        0.85872    0.16521    0.75560    1.000
    N4912    N        0.84248    0.24815    0.83803    1.000
    Si4913   Si       0.86723    0.23889    0.80490    1.000
    Si4914   Si       0.86751    0.16014    0.79816    1.000
    Si4915   Si       0.85138    0.05269    0.86926    1.000
    Si4916   Si       0.86638    0.11167    0.91653    1.000
    Si4917   Si       0.82129    0.06907    0.95131    1.000
    N4918    N        0.84984    0.10310    0.95539    1.000
    N4919    N        0.83907    0.02955    0.94680    1.000
    N4920    N        0.84071    0.08750    0.89149    1.000
    N4921    N        0.82612    0.01920    0.87985    1.000
    Si4922   Si       0.84164    0.02181    0.98977    1.000
    N4923    N        0.86492    0.21290    0.94637    1.000
    Si4924   Si       0.85851    0.24713    0.87768    1.000
    Si4925   Si       0.84691    0.13682    0.98313    1.000
    Si4926   Si       0.82629    0.22753    0.93522    1.000
    N4927    N        0.85400    0.15270    0.91405    1.000
    Si4928   Si       0.81170    0.15858    0.92325    1.000
    Si4929   Si       0.86148    0.29049    0.10552    1.000
    N4930    N        0.81906    0.28844    0.09831    1.000
    N4931    N        0.82033    0.26464    0.03161    1.000
    N4932    N        0.83915    0.45592    0.07062    1.000
    Si4933   Si       0.83214    0.48279    0.03773    1.000
    Si4934   Si       0.83357    0.41883    0.02204    1.000
    N4935    N        0.81565    0.45599    0.00709    1.000
    N4936    N        0.86864    0.50520    0.02597    1.000
    Si4937   Si       0.84639    0.35553    0.15395    1.000
    N4938    N        0.83843    0.35543    0.19633    1.000
    Si4939   Si       0.85395    0.27411    0.24258    1.000
    N4940    N        0.86790    0.32393    0.13343    1.000
    N4941    N        0.86997    0.26550    0.20301    1.000
    N4942    N        0.87371    0.38740    0.13675    1.000
    N4943    N        0.81079    0.47764    0.17896    1.000
    Si4944   Si       0.82002    0.48084    0.22115    1.000
    N4945    N        0.86564    0.45610    0.13635    1.000
    Si4946   Si       0.82636    0.44412    0.15314    1.000
    N4947    N        0.84150    0.41867    0.18588    1.000
    N4948    N        0.85352    0.45947    0.23635    1.000
    Si4949   Si       0.86973    0.42420    0.21808    1.000
    Si4950   Si       0.82885    0.32178    0.28880    1.000
    N4951    N        0.85003    0.30297    0.32135    1.000
    Si4952   Si       0.85848    0.32010    0.36053    1.000
    N4953    N        0.82628    0.36389    0.30074    1.000
    N4954    N        0.85346    0.31732    0.25383    1.000
    Si4955   Si       0.86020    0.26128    0.31662    1.000
    Si4956   Si       0.83428    0.39685    0.27528    1.000
    Si4957   Si       0.85652    0.46885    0.27702    1.000
    N4958    N        0.84125    0.43260    0.29954    1.000
    N4959    N        0.83902    0.50213    0.29495    1.000
    N4960    N        0.86838    0.39017    0.24559    1.000
    N4961    N        0.82651    0.34674    0.37145    1.000
    Si4962   Si       0.84777    0.34286    0.48429    1.000
    N4963    N        0.85477    0.35545    0.44285    1.000
    N4964    N        0.85835    0.28481    0.38603    1.000
    Si4965   Si       0.82114    0.34945    0.41495    1.000
    N4966    N        0.86458    0.30244    0.48852    1.000
    Si4967   Si       0.81737    0.27846    0.39777    1.000
    Si4968   Si       0.83631    0.45849    0.45372    1.000
    N4969    N        0.83406    0.44841    0.40751    1.000
    N4970    N        0.85928    0.49195    0.46667    1.000
    N4971    N        0.85845    0.42206    0.46779    1.000
    N4972    N        0.83422    0.29103    0.55217    1.000
    N4973    N        0.85902    0.31129    0.61274    1.000
    Si4974   Si       0.82709    0.29034    0.51074    1.000
    N4975    N        0.87226    0.36975    0.50652    1.000
    Si4976   Si       0.87072    0.29993    0.57368    1.000
    Si4977   Si       0.85329    0.40821    0.50842    1.000
    N4978    N        0.83381    0.47798    0.58768    1.000
    Si4979   Si       0.85378    0.43974    0.58711    1.000
    N4980    N        0.83400    0.40356    0.59969    1.000
    N4981    N        0.86706    0.43478    0.54178    1.000
    Si4982   Si       0.85151    0.50899    0.56191    1.000
    Si4983   Si       0.82144    0.31189    0.70507    1.000
    N4984    N        0.85217    0.34069    0.71648    1.000
    N4985    N        0.83075    0.29741    0.66530    1.000
    Si4986   Si       0.81795    0.31491    0.62773    1.000
    Si4987   Si       0.87018    0.29021    0.64909    1.000
    N4988    N        0.82923    0.41993    0.66760    1.000
    Si4989   Si       0.84044    0.38838    0.64096    1.000
    Si4990   Si       0.82584    0.48330    0.72738    1.000
    N4991    N        0.85199    0.45291    0.74284    1.000
    N4992    N        0.84498    0.32313    0.82175    1.000
    Si4993   Si       0.82576    0.34325    0.85648    1.000
    Si4994   Si       0.83379    0.36286    0.74722    1.000
    N4995    N        0.82798    0.38632    0.85968    1.000
    N4996    N        0.85963    0.38770    0.77444    1.000
    N4997    N        0.83339    0.49897    0.82846    1.000
    Si4998   Si       0.83415    0.42121    0.76470    1.000
    N4999    N        0.81724    0.43713    0.80190    1.000
    Si5000   Si       0.82183    0.30045    0.92164    1.000
    N5001    N        0.84225    0.32588    0.89299    1.000
    N5002    N        0.84161    0.29873    0.96201    1.000
    N5003    N        0.82973    0.26033    0.90651    1.000
    Si5004   Si       0.81348    0.27395    0.99061    1.000
    N5005    N        0.85451    0.49898    0.89758    1.000
    Si5006   Si       0.84108    0.46939    0.92633    1.000
    N5007    N        0.86615    0.47021    0.96089    1.000
    Si5008   Si       0.82160    0.40553    0.89893    1.000
    N5009    N        0.85371    0.42746    0.91794    1.000
    N5010    N        0.83500    0.39371    0.98475    1.000
    Si5011   Si       0.84977    0.60246    0.02025    1.000
    N5012    N        0.85765    0.55951    0.06471    1.000
    N5013    N        0.85606    0.62394    0.05775    1.000
    N5014    N        0.81937    0.57176    0.00910    1.000
    Si5015   Si       0.81761    0.55407    0.04793    1.000
    Si5016   Si       0.83463    0.65675    0.07666    1.000
    N5017    N        0.84278    0.68736    0.10579    1.000
    Si5018   Si       0.83282    0.67469    0.01519    1.000
    N5019    N        0.83547    0.75221    0.03682    1.000
    N5020    N        0.86368    0.68336    0.04555    1.000
    N5021    N        0.81712    0.75493    0.10890    1.000
    N5022    N        0.86967    0.59895    0.12413    1.000
    N5023    N        0.83299    0.52259    0.22742    1.000
    Si5024   Si       0.83935    0.54198    0.19043    1.000
    Si5025   Si       0.83039    0.62105    0.20485    1.000
    Si5026   Si       0.83583    0.62440    0.14055    1.000
    N5027    N        0.86082    0.58164    0.19671    1.000
    N5028    N        0.86441    0.53422    0.15511    1.000
    N5029    N        0.81542    0.70125    0.16135    1.000
    N5030    N        0.85820    0.70315    0.21668    1.000
    N5031    N        0.86749    0.74778    0.16101    1.000
    Si5032   Si       0.83187    0.67722    0.23898    1.000
    N5033    N        0.85882    0.64276    0.17288    1.000
    N5034    N        0.85592    0.63851    0.24295    1.000
    Si5035   Si       0.85626    0.70509    0.17302    1.000
    Si5036   Si       0.82904    0.53701    0.27091    1.000
    N5037    N        0.85782    0.56866    0.27645    1.000
    Si5038   Si       0.84023    0.60586    0.26515    1.000
    N5039    N        0.82502    0.62461    0.30150    1.000
    Si5040   Si       0.81942    0.55736    0.37060    1.000
    Si5041   Si       0.83096    0.66717    0.31428    1.000
    N5042    N        0.81680    0.68862    0.27826    1.000
    N5043    N        0.86631    0.74701    0.26266    1.000
    N5044    N        0.86739    0.68495    0.32934    1.000
    N5045    N        0.84644    0.59318    0.37400    1.000
    N5046    N        0.84245    0.51985    0.38176    1.000
    Si5047   Si       0.84618    0.52826    0.48619    1.000
    N5048    N        0.81134    0.55124    0.46952    1.000
    N5049    N        0.87160    0.74288    0.37412    1.000
    Si5050   Si       0.86850    0.67091    0.43902    1.000
    N5051    N        0.86131    0.66823    0.39559    1.000
    N5052    N        0.86211    0.70585    0.46290    1.000
    N5053    N        0.83985    0.64476    0.45884    1.000
    Si5054   Si       0.83536    0.63455    0.38441    1.000
    N5055    N        0.84672    0.55069    0.57831    1.000
    N5056    N        0.83505    0.59946    0.52045    1.000
    Si5057   Si       0.82267    0.58134    0.55828    1.000
    N5058    N        0.82811    0.51431    0.52349    1.000
    Si5059   Si       0.84976    0.63576    0.50192    1.000
    Si5060   Si       0.87543    0.55953    0.61048    1.000
    N5061    N        0.87032    0.60164    0.61549    1.000
    Si5062   Si       0.84372    0.68607    0.55673    1.000
    N5063    N        0.82876    0.66902    0.52033    1.000
    N5064    N        0.86046    0.72025    0.53180    1.000
    Si5065   Si       0.85524    0.75753    0.55409    1.000
    N5066    N        0.87263    0.66111    0.57333    1.000
    Si5067   Si       0.83443    0.70816    0.49849    1.000
    N5068    N        0.86096    0.61744    0.68549    1.000
    Si5069   Si       0.81784    0.53800    0.66861    1.000
    Si5070   Si       0.84124    0.59867    0.65048    1.000
    N5071    N        0.85917    0.55154    0.65326    1.000
    N5072    N        0.83952    0.51145    0.69808    1.000
    N5073    N        0.87512    0.68116    0.74606    1.000
    N5074    N        0.82077    0.64170    0.64570    1.000
    N5075    N        0.85974    0.74900    0.72954    1.000
    Si5076   Si       0.85571    0.65926    0.66876    1.000
    N5077    N        0.84657    0.69777    0.68597    1.000
    N5078    N        0.81748    0.73878    0.63348    1.000
    N5079    N        0.82459    0.57328    0.76510    1.000
    Si5080   Si       0.83910    0.52075    0.86409    1.000
    N5081    N        0.81715    0.60748    0.82245    1.000
    Si5082   Si       0.85910    0.62038    0.82894    1.000
    N5083    N        0.86255    0.62472    0.87139    1.000
    Si5084   Si       0.86842    0.57414    0.77587    1.000
    Si5085   Si       0.85102    0.69210    0.82456    1.000
    Si5086   Si       0.83766    0.67630    0.76641    1.000
    N5087    N        0.83331    0.68749    0.86302    1.000
    N5088    N        0.86437    0.65596    0.80288    1.000
    N5089    N        0.81882    0.70252    0.79585    1.000
    N5090    N        0.81273    0.64449    0.75442    1.000
    N5091    N        0.86136    0.54002    0.96521    1.000
    Si5092   Si       0.83919    0.62179    0.95181    1.000
    Si5093   Si       0.81838    0.55597    0.96802    1.000
    N5094    N        0.80967    0.59124    0.94358    1.000
    N5095    N        0.83320    0.70524    0.98647    1.000
    N5096    N        0.84071    0.65885    0.92866    1.000
    N5097    N        0.84460    0.72798    0.92078    1.000
    Si5098   Si       0.85202    0.69570    0.94923    1.000
    Si5099   Si       0.81716    0.74317    0.99517    1.000
    Si5100   Si       0.83185    0.65223    0.88751    1.000
    Si5101   Si       0.81579    0.72125    0.88533    1.000
    N5102    N        0.83844    0.63697    0.99351    1.000
    Si5103   Si       0.84438    0.79349    0.02284    1.000
    Si5104   Si       0.81740    0.85303    0.05887    1.000
    N5105    N        0.84424    0.87773    0.03619    1.000
    N5106    N        0.81919    0.81034    0.05523    1.000
    N5107    N        0.82019    0.85700    0.10211    1.000
    Si5108   Si       0.86031    0.76200    0.11927    1.000
    N5109    N        0.83996    0.96224    0.09698    1.000
    N5110    N        0.81263    0.99343    0.00164    1.000
    Si5111   Si       0.84599    0.83198    0.12591    1.000
    Si5112   Si       0.83880    0.81634    0.19301    1.000
    N5113    N        0.83161    0.85681    0.20915    1.000
    N5114    N        0.82430    0.80697    0.15286    1.000
    N5115    N        0.81576    0.79029    0.22092    1.000
    N5116    N        0.86623    0.85952    0.15478    1.000
    Si5117   Si       0.82728    0.00312    0.20039    1.000
    N5118    N        0.82698    0.92621    0.20733    1.000
    N5119    N        0.86404    0.98427    0.21533    1.000
    Si5120   Si       0.82440    0.99315    0.12252    1.000
    Si5121   Si       0.84298    0.88909    0.18050    1.000
    Si5122   Si       0.87450    0.94162    0.21293    1.000
    N5123    N        0.81790    0.98101    0.16300    1.000
    N5124    N        0.81242    0.90375    0.15296    1.000
    N5125    N        0.82767    0.84833    0.33471    1.000
    N5126    N        0.85217    0.82021    0.26721    1.000
    Si5127   Si       0.85854    0.82823    0.31134    1.000
    Si5128   Si       0.83637    0.77730    0.25747    1.000
    N5129    N        0.85896    0.78448    0.32166    1.000
    Si5130   Si       0.83829    0.76426    0.35326    1.000
    Si5131   Si       0.82187    0.84730    0.24994    1.000
    N5132    N        0.82214    0.88406    0.27466    1.000
    N5133    N        0.86077    0.99271    0.28874    1.000
    Si5134   Si       0.84971    0.91672    0.28560    1.000
    Si5135   Si       0.81954    0.98844    0.27330    1.000
    N5136    N        0.81600    0.94575    0.27311    1.000
    N5137    N        0.85025    0.84403    0.41454    1.000
    N5138    N        0.82065    0.86481    0.47648    1.000
    Si5139   Si       0.82505    0.83812    0.37942    1.000
    Si5140   Si       0.85480    0.81305    0.44526    1.000
    Si5141   Si       0.82393    0.87748    0.43080    1.000
    N5142    N        0.82267    0.79469    0.38001    1.000
    N5143    N        0.81269    0.80241    0.44883    1.000
    N5144    N        0.86847    0.77371    0.43388    1.000
    N5145    N        0.83291    0.91946    0.42008    1.000
    Si5146   Si       0.85618    0.95466    0.43354    1.000
    N5147    N        0.83940    0.96049    0.47400    1.000
    N5148    N        0.83126    0.98333    0.41109    1.000
    N5149    N        0.85040    0.80484    0.60688    1.000
    N5150    N        0.83498    0.84944    0.54606    1.000
    N5151    N        0.85478    0.86694    0.60159    1.000
    Si5152   Si       0.86402    0.82672    0.56899    1.000
    Si5153   Si       0.84079    0.87932    0.51418    1.000
    N5154    N        0.81624    0.91912    0.60782    1.000
    Si5155   Si       0.82278    0.88775    0.57813    1.000
    N5156    N        0.82498    0.91095    0.54021    1.000
    Si5157   Si       0.85651    0.98317    0.50738    1.000
    N5158    N        0.82578    0.98098    0.53942    1.000
    Si5159   Si       0.85165    0.76381    0.62323    1.000
    Si5160   Si       0.82697    0.77579    0.72145    1.000
    N5161    N        0.83649    0.80723    0.69213    1.000
    Si5162   Si       0.84860    0.84215    0.63799    1.000
    Si5163   Si       0.83311    0.87510    0.71028    1.000
    N5164    N        0.86610    0.85625    0.73136    1.000
    N5165    N        0.84254    0.87917    0.66783    1.000
    Si5166   Si       0.81038    0.94312    0.71293    1.000
    Si5167   Si       0.86007    0.97968    0.67720    1.000
    N5168    N        0.82938    0.90837    0.73658    1.000
    N5169    N        0.84172    0.97215    0.71423    1.000
    Si5170   Si       0.83933    0.91600    0.64654    1.000
    N5171    N        0.83004    0.00530    0.65871    1.000
    N5172    N        0.84342    0.85643    0.79361    1.000
    Si5173   Si       0.85157    0.82886    0.76117    1.000
    Si5174   Si       0.83809    0.83142    0.82710    1.000
    N5175    N        0.81839    0.79927    0.75664    1.000
    N5176    N        0.82953    0.85081    0.86494    1.000
    N5177    N        0.84096    0.75853    0.86583    1.000
    Si5178   Si       0.86300    0.95803    0.81672    1.000
    N5179    N        0.83305    0.92828    0.80455    1.000
    Si5180   Si       0.84933    0.89825    0.77686    1.000
    N5181    N        0.84008    0.99515    0.81582    1.000
    Si5182   Si       0.86249    0.83108    0.88327    1.000
    Si5183   Si       0.86274    0.76316    0.90259    1.000
    N5184    N        0.83013    0.78286    0.98080    1.000
    Si5185   Si       0.83577    0.81424    0.95097    1.000
    N5186    N        0.85460    0.80283    0.91492    1.000
    N5187    N        0.86232    0.83928    0.97459    1.000
    Si5188   Si       0.85246    0.87813    0.99180    1.000
    N5189    N        0.81988    0.89610    0.97012    1.000
    Si5190   Si       0.83785    0.99751    0.91742    1.000
    N5191    N        0.90238    0.11143    0.02654    1.000
    N5192    N        0.90735    0.11920    0.09626    1.000
    N5193    N        0.90485    0.05011    0.11084    1.000
    Si5194   Si       0.89787    0.07503    0.00287    1.000
    Si5195   Si       0.87959    0.11354    0.06314    1.000
    N5196    N        0.92692    0.04595    0.02020    1.000
    Si5197   Si       0.90126    0.00949    0.02695    1.000
    N5198    N        0.87783    0.01175    0.06407    1.000
    Si5199   Si       0.93008    0.08683    0.11285    1.000
    N5200    N        0.90044    0.20025    0.09776    1.000
    Si5201   Si       0.90779    0.20743    0.05497    1.000
    Si5202   Si       0.89004    0.15931    0.10627    1.000
    Si5203   Si       0.91803    0.14764    0.00915    1.000
    N5204    N        0.87760    0.21805    0.02460    1.000
    Si5205   Si       0.92380    0.10361    0.18950    1.000
    Si5206   Si       0.91856    0.01590    0.13374    1.000
    N5207    N        0.91789    0.01498    0.17786    1.000
    N5208    N        0.88012    0.09608    0.18894    1.000
    N5209    N        0.87745    0.05674    0.24540    1.000
    Si5210   Si       0.90819    0.22940    0.13007    1.000
    N5211    N        0.90592    0.21279    0.16931    1.000
    N5212    N        0.88553    0.15240    0.14783    1.000
    Si5213   Si       0.91910    0.17080    0.16668    1.000
    N5214    N        0.87534    0.19952    0.23278    1.000
    Si5215   Si       0.91212    0.08445    0.32163    1.000
    N5216    N        0.88993    0.12091    0.32809    1.000
    N5217    N        0.88551    0.04998    0.31638    1.000
    Si5218   Si       0.91968    0.06069    0.24745    1.000
    N5219    N        0.92329    0.01584    0.25329    1.000
    N5220    N        0.93200    0.08719    0.28120    1.000
    Si5221   Si       0.87241    0.03202    0.35289    1.000
    N5222    N        0.88215    0.18753    0.30011    1.000
    Si5223   Si       0.89397    0.14764    0.29260    1.000
    Si5224   Si       0.89272    0.21611    0.26909    1.000
    N5225    N        0.89175    0.24049    0.34118    1.000
    N5226    N        0.89065    0.05292    0.38453    1.000
    N5227    N        0.89008    0.09341    0.44440    1.000
    Si5228   Si       0.89123    0.19279    0.49110    1.000
    Si5229   Si       0.87864    0.13328    0.45789    1.000
    Si5230   Si       0.90515    0.23462    0.44847    1.000
    N5231    N        0.90293    0.22495    0.40523    1.000
    Si5232   Si       0.90504    0.18264    0.39684    1.000
    N5233    N        0.90275    0.16139    0.43418    1.000
    N5234    N        0.87240    0.17499    0.37012    1.000
    N5235    N        0.90721    0.02647    0.55195    1.000
    Si5236   Si       0.89520    0.05034    0.51327    1.000
    Si5237   Si       0.89942    0.02942    0.59569    1.000
    Si5238   Si       0.88875    0.12685    0.53489    1.000
    N5239    N        0.91323    0.13108    0.61646    1.000
    N5240    N        0.87189    0.08609    0.52675    1.000
    N5241    N        0.88723    0.06543    0.61785    1.000
    N5242    N        0.92759    0.11728    0.54941    1.000
    Si5243   Si       0.90810    0.23553    0.54483    1.000
    N5244    N        0.91266    0.20280    0.60160    1.000
    Si5245   Si       0.88933    0.16382    0.60537    1.000
    N5246    N        0.88000    0.20756    0.53035    1.000
    Si5247   Si       0.87357    0.22933    0.60248    1.000
    N5248    N        0.88975    0.15136    0.49749    1.000
    N5249    N        0.87200    0.15387    0.56651    1.000
    N5250    N        0.91326    0.12727    0.72725    1.000
    Si5251   Si       0.90322    0.09648    0.64184    1.000
    N5252    N        0.88046    0.11672    0.67300    1.000
    N5253    N        0.90011    0.06362    0.71675    1.000
    Si5254   Si       0.88036    0.10228    0.71484    1.000
    N5255    N        0.89039    0.01082    0.66231    1.000
    N5256    N        0.92565    0.21681    0.66971    1.000
    Si5257   Si       0.87436    0.20349    0.74290    1.000
    N5258    N        0.87436    0.24813    0.64130    1.000
    N5259    N        0.91575    0.19831    0.74012    1.000
    Si5260   Si       0.88152    0.21247    0.66715    1.000
    N5261    N        0.90028    0.03110    0.80018    1.000
    Si5262   Si       0.90220    0.04629    0.75632    1.000
    N5263    N        0.92939    0.08878    0.83780    1.000
    Si5264   Si       0.90783    0.19754    0.84882    1.000
    N5265    N        0.90794    0.14406    0.79230    1.000
    N5266    N        0.88028    0.19853    0.81469    1.000
    N5267    N        0.92364    0.15870    0.85331    1.000
    Si5268   Si       0.92780    0.15905    0.75802    1.000
    N5269    N        0.92558    0.01571    0.94621    1.000
    Si5270   Si       0.92056    0.07633    0.87920    1.000
    N5271    N        0.90610    0.10946    0.90138    1.000
    N5272    N        0.89304    0.04344    0.88258    1.000
    N5273    N        0.92643    0.07837    0.96996    1.000
    Si5274   Si       0.92467    0.01986    0.90340    1.000
    N5275    N        0.88284    0.15963    0.98858    1.000
    N5276    N        0.92498    0.17537    0.91935    1.000
    Si5277   Si       0.88390    0.18406    0.91822    1.000
    Si5278   Si       0.88623    0.20380    0.98407    1.000
    N5279    N        0.88050    0.20771    0.88154    1.000
    Si5280   Si       0.89857    0.33240    0.04509    1.000
    N5281    N        0.90175    0.36549    0.07411    1.000
    N5282    N        0.88453    0.34244    0.00331    1.000
    N5283    N        0.88079    0.30262    0.06894    1.000
    Si5284   Si       0.89457    0.35545    0.11573    1.000
    Si5285   Si       0.90996    0.40350    0.05310    1.000
    N5286    N        0.90902    0.43881    0.07792    1.000
    N5287    N        0.88647    0.50408    0.09519    1.000
    Si5288   Si       0.87538    0.46129    0.09146    1.000
    N5289    N        0.87652    0.41178    0.02636    1.000
    Si5290   Si       0.88614    0.29041    0.16931    1.000
    N5291    N        0.89398    0.32808    0.19271    1.000
    N5292    N        0.87920    0.26092    0.13300    1.000
    Si5293   Si       0.87482    0.34593    0.22833    1.000
    N5294    N        0.92968    0.35543    0.13950    1.000
    N5295    N        0.93110    0.28795    0.16211    1.000
    N5296    N        0.92268    0.49784    0.15769    1.000
    Si5297   Si       0.88304    0.49825    0.13926    1.000
    Si5298   Si       0.89028    0.42423    0.15270    1.000
    N5299    N        0.90738    0.42214    0.19437    1.000
    N5300    N        0.93185    0.43088    0.13954    1.000
    Si5301   Si       0.91734    0.35965    0.32968    1.000
    N5302    N        0.89132    0.34784    0.36363    1.000
    N5303    N        0.91542    0.34896    0.25051    1.000
    Si5304   Si       0.90923    0.39118    0.26417    1.000
    N5305    N        0.89866    0.38892    0.30622    1.000
    N5306    N        0.89517    0.45903    0.29105    1.000
    N5307    N        0.89131    0.44562    0.35586    1.000
    Si5308   Si       0.88034    0.42700    0.31923    1.000
    Si5309   Si       0.92690    0.46990    0.35302    1.000
    N5310    N        0.91222    0.51019    0.35719    1.000
    N5311    N        0.91413    0.27824    0.44441    1.000
    Si5312   Si       0.91909    0.37182    0.39190    1.000
    Si5313   Si       0.90448    0.29143    0.48386    1.000
    Si5314   Si       0.89299    0.25843    0.38204    1.000
    N5315    N        0.92750    0.32671    0.49559    1.000
    N5316    N        0.92838    0.28533    0.37585    1.000
    N5317    N        0.89420    0.40228    0.41062    1.000
    N5318    N        0.89268    0.47728    0.41608    1.000
    N5319    N        0.91592    0.45803    0.49242    1.000
    Si5320   Si       0.87814    0.44054    0.39724    1.000
    Si5321   Si       0.90140    0.47997    0.45800    1.000
    Si5322   Si       0.88228    0.38979    0.45131    1.000
    N5323    N        0.92284    0.39088    0.46850    1.000
    N5324    N        0.90321    0.32540    0.56021    1.000
    Si5325   Si       0.90739    0.35248    0.52575    1.000
    N5326    N        0.91528    0.26140    0.51159    1.000
    N5327    N        0.88976    0.25909    0.57501    1.000
    Si5328   Si       0.90240    0.46119    0.53409    1.000
    N5329    N        0.89291    0.49971    0.55065    1.000
    N5330    N        0.88716    0.43706    0.61562    1.000
    Si5331   Si       0.92893    0.44177    0.60008    1.000
    N5332    N        0.92683    0.36515    0.70588    1.000
    N5333    N        0.89763    0.30847    0.67856    1.000
    Si5334   Si       0.88847    0.34949    0.69037    1.000
    N5335    N        0.87890    0.37663    0.65577    1.000
    N5336    N        0.91153    0.50658    0.66519    1.000
    Si5337   Si       0.92515    0.47579    0.69176    1.000
    N5338    N        0.91634    0.43381    0.68083    1.000
    Si5339   Si       0.90445    0.40987    0.64626    1.000
    N5340    N        0.90954    0.48567    0.73074    1.000
    N5341    N        0.89220    0.27416    0.80537    1.000
    N5342    N        0.91080    0.34345    0.78750    1.000
    N5343    N        0.90019    0.33604    0.85437    1.000
    Si5344   Si       0.88801    0.31622    0.81462    1.000
    Si5345   Si       0.92418    0.37204    0.85600    1.000
    Si5346   Si       0.90249    0.38698    0.78512    1.000
    N5347    N        0.89103    0.46706    0.79792    1.000
    Si5348   Si       0.91548    0.44638    0.82601    1.000
    N5349    N        0.91228    0.40277    0.82395    1.000
    Si5350   Si       0.89271    0.45608    0.75615    1.000
    N5351    N        0.91532    0.41883    0.75402    1.000
    N5352    N        0.90973    0.45851    0.86802    1.000
    Si5353   Si       0.87354    0.50661    0.81094    1.000
    N5354    N        0.89114    0.27526    0.88260    1.000
    Si5355   Si       0.88553    0.31776    0.89301    1.000
    N5356    N        0.89946    0.33080    0.93377    1.000
    Si5357   Si       0.88277    0.31155    0.97178    1.000
    Si5358   Si       0.91958    0.36953    0.93425    1.000
    N5359    N        0.90979    0.27976    0.98369    1.000
    Si5360   Si       0.87609    0.38271    0.99256    1.000
    Si5361   Si       0.88585    0.43268    0.94558    1.000
    N5362    N        0.91977    0.38872    0.89552    1.000
    Si5363   Si       0.87848    0.50484    0.98365    1.000
    Si5364   Si       0.89652    0.49868    0.88157    1.000
    N5365    N        0.90337    0.39924    0.96504    1.000
    N5366    N        0.92207    0.50146    0.98271    1.000
    N5367    N        0.92362    0.44933    0.93208    1.000
    Si5368   Si       0.88703    0.52692    0.05830    1.000
    N5369    N        0.91461    0.60763    0.06408    1.000
    Si5370   Si       0.92218    0.58217    0.02974    1.000
    N5371    N        0.88729    0.58802    0.00544    1.000
    N5372    N        0.92334    0.54137    0.04095    1.000
    Si5373   Si       0.87549    0.59640    0.08301    1.000
    Si5374   Si       0.89930    0.65067    0.05313    1.000
    N5375    N        0.89756    0.73311    0.01784    1.000
    N5376    N        0.91289    0.67352    0.08790    1.000
    Si5377   Si       0.88667    0.69750    0.11215    1.000
    N5378    N        0.88081    0.73750    0.09192    1.000
    N5379    N        0.92385    0.66374    0.01804    1.000
    Si5380   Si       0.86811    0.72674    0.05072    1.000
    Si5381   Si       0.88170    0.57766    0.15931    1.000
    N5382    N        0.92426    0.57453    0.15958    1.000
    N5383    N        0.91931    0.74423    0.21468    1.000
    N5384    N        0.89452    0.69094    0.15425    1.000
    Si5385   Si       0.88972    0.72074    0.23838    1.000
    N5386    N        0.91857    0.64597    0.21137    1.000
    Si5387   Si       0.90165    0.65110    0.17207    1.000
    Si5388   Si       0.89814    0.64689    0.24963    1.000
    N5389    N        0.90347    0.57374    0.33371    1.000
    N5390    N        0.91274    0.61693    0.27711    1.000
    Si5391   Si       0.89792    0.57615    0.28917    1.000
    N5392    N        0.92055    0.53905    0.28329    1.000
    Si5393   Si       0.92694    0.53679    0.32649    1.000
    N5394    N        0.91419    0.73452    0.31358    1.000
    N5395    N        0.90053    0.68927    0.26466    1.000
    Si5396   Si       0.90527    0.69198    0.30848    1.000
    Si5397   Si       0.87803    0.70069    0.36889    1.000
    Si5398   Si       0.89119    0.58218    0.37547    1.000
    N5399    N        0.90893    0.61699    0.38739    1.000
    N5400    N        0.88067    0.55364    0.48334    1.000
    N5401    N        0.89471    0.55304    0.40857    1.000
    Si5402   Si       0.91148    0.54765    0.45114    1.000
    Si5403   Si       0.88526    0.51423    0.39175    1.000
    Si5404   Si       0.92697    0.65299    0.40041    1.000
    Si5405   Si       0.88856    0.73933    0.45461    1.000
    Si5406   Si       0.92089    0.65164    0.48058    1.000
    N5407    N        0.91028    0.65644    0.43972    1.000
    N5408    N        0.90455    0.75266    0.49101    1.000
    N5409    N        0.91952    0.69267    0.37768    1.000
    N5410    N        0.92249    0.74123    0.42665    1.000
    N5411    N        0.91377    0.53944    0.60225    1.000
    N5412    N        0.92166    0.56961    0.53722    1.000
    Si5413   Si       0.92185    0.53064    0.55912    1.000
    Si5414   Si       0.90636    0.58526    0.50022    1.000
    N5415    N        0.89187    0.62648    0.50036    1.000
    Si5416   Si       0.88973    0.63734    0.60512    1.000
    Si5417   Si       0.90347    0.72029    0.51984    1.000
    Si5418   Si       0.91927    0.74538    0.58870    1.000
    N5419    N        0.87583    0.74909    0.59065    1.000
    N5420    N        0.92786    0.68871    0.50185    1.000
    N5421    N        0.93292    0.73681    0.54766    1.000
    Si5422   Si       0.89128    0.59829    0.71105    1.000
    N5423    N        0.89478    0.55419    0.71621    1.000
    Si5424   Si       0.87885    0.52909    0.68421    1.000
    Si5425   Si       0.91089    0.52560    0.74648    1.000
    N5426    N        0.93051    0.60861    0.69907    1.000
    N5427    N        0.91498    0.71934    0.69497    1.000
    N5428    N        0.88976    0.66276    0.64196    1.000
    Si5429   Si       0.91726    0.74393    0.65857    1.000
    Si5430   Si       0.92989    0.67862    0.63320    1.000
    Si5431   Si       0.87570    0.71158    0.71498    1.000
    N5432    N        0.92785    0.72132    0.62398    1.000
    N5433    N        0.88625    0.52547    0.84893    1.000
    N5434    N        0.88203    0.58570    0.81597    1.000
    N5435    N        0.88059    0.53335    0.77824    1.000
    Si5436   Si       0.90984    0.56678    0.84392    1.000
    N5437    N        0.88285    0.60911    0.75294    1.000
    Si5438   Si       0.91777    0.72834    0.80275    1.000
    N5439    N        0.91867    0.73495    0.75944    1.000
    Si5440   Si       0.89398    0.64902    0.77012    1.000
    N5441    N        0.88061    0.72454    0.82426    1.000
    Si5442   Si       0.89310    0.61369    0.89899    1.000
    Si5443   Si       0.88942    0.57394    0.96451    1.000
    N5444    N        0.91766    0.58098    0.88572    1.000
    N5445    N        0.92372    0.51540    0.91009    1.000
    N5446    N        0.87657    0.60440    0.93751    1.000
    N5447    N        0.92000    0.64661    0.89855    1.000
    N5448    N        0.89382    0.69025    0.95722    1.000
    Si5449   Si       0.92325    0.67525    0.92970    1.000
    Si5450   Si       0.91424    0.70136    0.99489    1.000
    N5451    N        0.88614    0.79876    0.02380    1.000
    Si5452   Si       0.91758    0.77063    0.01730    1.000
    N5453    N        0.91018    0.87443    0.05881    1.000
    Si5454   Si       0.91404    0.80839    0.11852    1.000
    N5455    N        0.93099    0.85177    0.00085    1.000
    N5456    N        0.87297    0.80326    0.11138    1.000
    Si5457   Si       0.87792    0.97239    0.08189    1.000
    Si5458   Si       0.88253    0.90011    0.04152    1.000
    N5459    N        0.89354    0.93978    0.05766    1.000
    N5460    N        0.88626    0.90225    0.99727    1.000
    N5461    N        0.90378    0.97926    0.11679    1.000
    Si5462   Si       0.89938    0.76727    0.18281    1.000
    N5463    N        0.88043    0.79967    0.20522    1.000
    N5464    N        0.92589    0.78173    0.15118    1.000
    Si5465   Si       0.89025    0.81417    0.24600    1.000
    N5466    N        0.92836    0.84883    0.12992    1.000
    N5467    N        0.91675    0.84991    0.24438    1.000
    Si5468   Si       0.90328    0.88189    0.15651    1.000
    N5469    N        0.88131    0.91243    0.18048    1.000
    N5470    N        0.91973    0.95780    0.21839    1.000
    Si5471   Si       0.90545    0.00084    0.21611    1.000
    N5472    N        0.91347    0.90715    0.12280    1.000
    N5473    N        0.91125    0.78988    0.27462    1.000
    N5474    N        0.88834    0.86083    0.30635    1.000
    Si5475   Si       0.88668    0.76209    0.29707    1.000
    Si5476   Si       0.92760    0.86973    0.28420    1.000
    N5477    N        0.87940    0.92122    0.25287    1.000
    N5478    N        0.92306    0.95979    0.29281    1.000
    N5479    N        0.88778    0.99052    0.35175    1.000
    Si5480   Si       0.89869    0.89303    0.33460    1.000
    Si5481   Si       0.88629    0.96756    0.31532    1.000
    Si5482   Si       0.91921    0.93704    0.25650    1.000
    N5483    N        0.87186    0.92671    0.32105    1.000
    Si5484   Si       0.89215    0.85427    0.40522    1.000
    N5485    N        0.90805    0.81414    0.39856    1.000
    Si5486   Si       0.90643    0.86501    0.47912    1.000
    Si5487   Si       0.89736    0.77042    0.40003    1.000
    N5488    N        0.88647    0.82570    0.47536    1.000
    N5489    N        0.90342    0.87920    0.43896    1.000
    N5490    N        0.89546    0.88470    0.37717    1.000
    Si5491   Si       0.91247    0.97609    0.38422    1.000
    N5492    N        0.89387    0.95081    0.41513    1.000
    Si5493   Si       0.91597    0.91370    0.40760    1.000
    N5494    N        0.90621    0.84136    0.57459    1.000
    Si5495   Si       0.90026    0.79437    0.50477    1.000
    Si5496   Si       0.89566    0.87768    0.59842    1.000
    N5497    N        0.87226    0.79421    0.53818    1.000
    N5498    N        0.88270    0.88837    0.50713    1.000
    N5499    N        0.89911    0.91458    0.57636    1.000
    Si5500   Si       0.89804    0.91853    0.53304    1.000
    N5501    N        0.89198    0.96159    0.52337    1.000
    Si5502   Si       0.92465    0.98571    0.53988    1.000
    N5503    N        0.87970    0.76604    0.65700    1.000
    N5504    N        0.90854    0.79268    0.71405    1.000
    N5505    N        0.89043    0.83672    0.65681    1.000
    Si5506   Si       0.87954    0.80058    0.68225    1.000
    Si5507   Si       0.90315    0.87963    0.73252    1.000
    Si5508   Si       0.92604    0.86180    0.66402    1.000
    Si5509   Si       0.89517    0.77010    0.74941    1.000
    Si5510   Si       0.91273    0.92812    0.66598    1.000
    N5511    N        0.87140    0.94352    0.65625    1.000
    N5512    N        0.91572    0.89404    0.69415    1.000
    N5513    N        0.92057    0.89343    0.63260    1.000
    N5514    N        0.92503    0.96085    0.69479    1.000
    Si5515   Si       0.90545    0.80904    0.81403    1.000
    N5516    N        0.92194    0.76914    0.81819    1.000
    N5517    N        0.88389    0.80318    0.77636    1.000
    N5518    N        0.87502    0.80918    0.84581    1.000
    Si5519   Si       0.88224    0.76234    0.84521    1.000
    N5520    N        0.87685    0.94792    0.85498    1.000
    Si5521   Si       0.92180    0.93192    0.78386    1.000
    N5522    N        0.89992    0.96642    0.79693    1.000
    N5523    N        0.89200    0.90596    0.76554    1.000
    Si5524   Si       0.92856    0.99766    0.78705    1.000
    Si5525   Si       0.92979    0.87067    0.90471    1.000
    N5526    N        0.88962    0.86146    0.89698    1.000
    N5527    N        0.92116    0.78972    0.97480    1.000
    Si5528   Si       0.90022    0.82384    0.99042    1.000
    N5529    N        0.90237    0.75452    0.88598    1.000
    N5530    N        0.88094    0.99857    0.99055    1.000
    N5531    N        0.92523    0.94772    0.95968    1.000
    Si5532   Si       0.89894    0.98159    0.95678    1.000
    Si5533   Si       0.90186    0.95572    0.88812    1.000
    Si5534   Si       0.92655    0.91154    0.98488    1.000
    N5535    N        0.87680    0.97745    0.91920    1.000
    N5536    N        0.92792    0.91719    0.89681    1.000
    N5537    N        0.96424    0.08274    0.08393    1.000
    Si5538   Si       0.95875    0.06385    0.04394    1.000
    N5539    N        0.97615    0.08787    0.01289    1.000
    N5540    N        0.98074    0.02696    0.05697    1.000
    Si5541   Si       0.97543    0.17688    0.04769    1.000
    Si5542   Si       0.96541    0.24711    0.08119    1.000
    N5543    N        0.98416    0.20575    0.07918    1.000
    N5544    N        0.93280    0.17561    0.03890    1.000
    N5545    N        0.93328    0.24384    0.05358    1.000
    N5546    N        0.94136    0.06935    0.21135    1.000
    Si5547   Si       0.95846    0.03750    0.17863    1.000
    N5548    N        0.94708    0.09997    0.15033    1.000
    N5549    N        0.96373    0.02474    0.13367    1.000
    Si5550   Si       0.98489    0.07881    0.22399    1.000
    N5551    N        0.98021    0.11668    0.24326    1.000
    N5552    N        0.98399    0.25973    0.19818    1.000
    N5553    N        0.93137    0.14509    0.19912    1.000
    Si5554   Si       0.97653    0.20065    0.12329    1.000
    N5555    N        0.95036    0.23773    0.12430    1.000
    N5556    N        0.97501    0.18914    0.23315    1.000
    N5557    N        0.95137    0.16881    0.13813    1.000
    Si5558   Si       0.97545    0.13272    0.14961    1.000
    Si5559   Si       0.97067    0.15006    0.21784    1.000
    Si5560   Si       0.96163    0.12057    0.28110    1.000
    N5561    N        0.94404    0.07166    0.34873    1.000
    Si5562   Si       0.98330    0.08787    0.34394    1.000
    N5563    N        0.98597    0.12185    0.31675    1.000
    N5564    N        0.93571    0.15487    0.27836    1.000
    Si5565   Si       0.96156    0.19237    0.27476    1.000
    N5566    N        0.93494    0.22765    0.27099    1.000
    N5567    N        0.98941    0.19316    0.31050    1.000
    N5568    N        0.93161    0.05805    0.48687    1.000
    N5569    N        0.94319    0.00905    0.38875    1.000
    N5570    N        0.95363    0.12537    0.46967    1.000
    N5571    N        0.95117    0.07132    0.42031    1.000
    Si5572   Si       0.93073    0.08884    0.45476    1.000
    Si5573   Si       0.93363    0.05144    0.38660    1.000
    Si5574   Si       0.96801    0.03509    0.49373    1.000
    Si5575   Si       0.97903    0.18316    0.39004    1.000
    N5576    N        0.93104    0.20691    0.47378    1.000
    Si5577   Si       0.94185    0.16688    0.45582    1.000
    N5578    N        0.97758    0.17388    0.43344    1.000
    N5579    N        0.94050    0.17279    0.37551    1.000
    N5580    N        0.96472    0.08708    0.60082    1.000
    Si5581   Si       0.94404    0.12256    0.58767    1.000
    N5582    N        0.94192    0.01763    0.61502    1.000
    N5583    N        0.96860    0.15892    0.58976    1.000
    Si5584   Si       0.95371    0.19869    0.58257    1.000
    N5585    N        0.94692    0.21794    0.54398    1.000
    N5586    N        0.97513    0.21986    0.61255    1.000
    Si5587   Si       0.95606    0.23110    0.50292    1.000
    Si5588   Si       0.96006    0.05406    0.62716    1.000
    Si5589   Si       0.93819    0.04996    0.69704    1.000
    N5590    N        0.96813    0.07855    0.71553    1.000
    N5591    N        0.95938    0.01239    0.68311    1.000
    N5592    N        0.93490    0.07229    0.65956    1.000
    Si5593   Si       0.94635    0.10349    0.74116    1.000
    N5594    N        0.93000    0.01135    0.74498    1.000
    Si5595   Si       0.94048    0.21991    0.71051    1.000
    N5596    N        0.98030    0.20700    0.72151    1.000
    Si5597   Si       0.93604    0.23227    0.62978    1.000
    N5598    N        0.96273    0.02223    0.80817    1.000
    Si5599   Si       0.93468    0.05627    0.81044    1.000
    Si5600   Si       0.93750    0.12902    0.82254    1.000
    N5601    N        0.93446    0.07599    0.77187    1.000
    N5602    N        0.98047    0.12966    0.82368    1.000
    N5603    N        0.96621    0.13714    0.75984    1.000
    N5604    N        0.96903    0.19738    0.79730    1.000
    Si5605   Si       0.97549    0.21775    0.83612    1.000
    N5606    N        0.93753    0.22953    0.85103    1.000
    N5607    N        0.96993    0.12236    0.88920    1.000
    Si5608   Si       0.94416    0.03947    0.97694    1.000
    Si5609   Si       0.96366    0.10351    0.97435    1.000
    N5610    N        0.95392    0.05322    0.89349    1.000
    N5611    N        0.98273    0.02046    0.99017    1.000
    Si5612   Si       0.98425    0.08289    0.90277    1.000
    N5613    N        0.92850    0.21140    0.97384    1.000
    Si5614   Si       0.95216    0.17956    0.95483    1.000
    N5615    N        0.95064    0.14352    0.97995    1.000
    Si5616   Si       0.93144    0.14317    0.89288    1.000
    N5617    N        0.94441    0.25743    0.92400    1.000
    Si5618   Si       0.93866    0.25375    0.96520    1.000
    Si5619   Si       0.97571    0.32268    0.06499    1.000
    N5620    N        0.93886    0.31401    0.04143    1.000
    Si5621   Si       0.93077    0.27541    0.02375    1.000
    N5622    N        0.96851    0.26699    0.99614    1.000
    N5623    N        0.98217    0.33874    0.10406    1.000
    N5624    N        0.96753    0.40093    0.08893    1.000
    N5625    N        0.94378    0.39748    0.02739    1.000
    N5626    N        0.96821    0.48338    0.03908    1.000
    Si5627   Si       0.94786    0.43886    0.09913    1.000
    N5628    N        0.97198    0.47480    0.10953    1.000
    Si5629   Si       0.98159    0.39299    0.04925    1.000
    Si5630   Si       0.96751    0.37473    0.12565    1.000
    N5631    N        0.97059    0.33124    0.19525    1.000
    Si5632   Si       0.96673    0.26231    0.15884    1.000
    Si5633   Si       0.93456    0.32879    0.17494    1.000
    Si5634   Si       0.98757    0.47278    0.22418    1.000
    N5635    N        0.97301    0.45918    0.18436    1.000
    Si5636   Si       0.95030    0.42190    0.17795    1.000
    N5637    N        0.97898    0.38998    0.16433    1.000
    Si5638   Si       0.96167    0.48483    0.14921    1.000
    Si5639   Si       0.95366    0.29407    0.34233    1.000
    Si5640   Si       0.95037    0.33344    0.27240    1.000
    N5641    N        0.97695    0.36785    0.26684    1.000
    N5642    N        0.96284    0.29553    0.25557    1.000
    N5643    N        0.93934    0.32537    0.31475    1.000
    N5644    N        0.96713    0.25997    0.31997    1.000
    Si5645   Si       0.96423    0.25879    0.27645    1.000
    N5646    N        0.94682    0.37807    0.35818    1.000
    N5647    N        0.95136    0.48127    0.31635    1.000
    Si5648   Si       0.97587    0.41005    0.35572    1.000
    N5649    N        0.93816    0.42234    0.26554    1.000
    Si5650   Si       0.93617    0.46351    0.27705    1.000
    Si5651   Si       0.98121    0.41128    0.27334    1.000
    Si5652   Si       0.98798    0.50241    0.32597    1.000
    N5653    N        0.95665    0.48926    0.24858    1.000
    N5654    N        0.99175    0.41794    0.31720    1.000
    Si5655   Si       0.93755    0.30065    0.41479    1.000
    Si5656   Si       0.94489    0.35337    0.46354    1.000
    N5657    N        0.97815    0.28819    0.42223    1.000
    N5658    N        0.98398    0.33788    0.47773    1.000
    N5659    N        0.93505    0.34323    0.42162    1.000
    Si5660   Si       0.98299    0.45024    0.40803    1.000
    N5661    N        0.95690    0.44807    0.37325    1.000
    Si5662   Si       0.97089    0.48810    0.45661    1.000
    N5663    N        0.95813    0.44656    0.44426    1.000
    Si5664   Si       0.94373    0.42590    0.47963    1.000
    Si5665   Si       0.94650    0.33462    0.57027    1.000
    N5666    N        0.96255    0.34057    0.60890    1.000
    N5667    N        0.97611    0.30896    0.54884    1.000
    Si5668   Si       0.96832    0.30948    0.50559    1.000
    N5669    N        0.94408    0.37072    0.54445    1.000
    N5670    N        0.97666    0.27004    0.48946    1.000
    Si5671   Si       0.97610    0.38326    0.61734    1.000
    Si5672   Si       0.96279    0.40902    0.55050    1.000
    N5673    N        0.97658    0.41964    0.50981    1.000
    N5674    N        0.94511    0.47755    0.61347    1.000
    N5675    N        0.93094    0.43970    0.55830    1.000
    Si5676   Si       0.97341    0.30497    0.63349    1.000
    N5677    N        0.96736    0.31931    0.67435    1.000
    Si5678   Si       0.96779    0.34785    0.70652    1.000
    N5679    N        0.94043    0.27421    0.63810    1.000
    Si5680   Si       0.98002    0.28182    0.73103    1.000
    N5681    N        0.96483    0.32047    0.74232    1.000
    N5682    N        0.94344    0.26429    0.71228    1.000
    Si5683   Si       0.93433    0.28907    0.67805    1.000
    N5684    N        0.96748    0.48350    0.69657    1.000
    Si5685   Si       0.93232    0.40827    0.71624    1.000
    N5686    N        0.93919    0.40402    0.62197    1.000
    N5687    N        0.97511    0.40882    0.71784    1.000
    Si5688   Si       0.95335    0.33770    0.77983    1.000
    N5689    N        0.96594    0.36252    0.85557    1.000
    Si5690   Si       0.97600    0.32151    0.84809    1.000
    N5691    N        0.97474    0.31136    0.80631    1.000
    N5692    N        0.96994    0.37833    0.77860    1.000
    N5693    N        0.98349    0.25724    0.76532    1.000
    N5694    N        0.95276    0.47278    0.81799    1.000
    Si5695   Si       0.98440    0.46316    0.84771    1.000
    N5696    N        0.98728    0.50125    0.86918    1.000
    Si5697   Si       0.93192    0.26195    0.87979    1.000
    N5698    N        0.95999    0.29303    0.87445    1.000
    N5699    N        0.95804    0.37393    0.95486    1.000
    Si5700   Si       0.98168    0.28041    0.91210    1.000
    N5701    N        0.97185    0.42800    0.87227    1.000
    Si5702   Si       0.93625    0.48965    0.94268    1.000
    Si5703   Si       0.93336    0.43202    0.89291    1.000
    N5704    N        0.97828    0.49141    0.93879    1.000
    N5705    N        0.97518    0.43873    0.98608    1.000
    Si5706   Si       0.94704    0.40565    0.98278    1.000
    N5707    N        0.95155    0.59952    0.00545    1.000
    Si5708   Si       0.95127    0.51525    0.01455    1.000
    N5709    N        0.97741    0.64908    0.08240    1.000
    Si5710   Si       0.94995    0.66586    0.11103    1.000
    Si5711   Si       0.98019    0.73445    0.02311    1.000
    N5712    N        0.98484    0.70562    0.05521    1.000
    N5713    N        0.97839    0.52680    0.16084    1.000
    Si5714   Si       0.95855    0.60532    0.15490    1.000
    N5715    N        0.98054    0.61778    0.19099    1.000
    Si5716   Si       0.93805    0.53553    0.17538    1.000
    N5717    N        0.93872    0.54459    0.21605    1.000
    N5718    N        0.98636    0.58807    0.12846    1.000
    N5719    N        0.98580    0.68363    0.20365    1.000
    Si5720   Si       0.96206    0.75074    0.22222    1.000
    N5721    N        0.97878    0.74872    0.18056    1.000
    N5722    N        0.97460    0.69648    0.12897    1.000
    Si5723   Si       0.96229    0.64922    0.21415    1.000
    N5724    N        0.93445    0.63858    0.14378    1.000
    N5725    N        0.96959    0.54249    0.32889    1.000
    Si5726   Si       0.95152    0.53172    0.25463    1.000
    N5727    N        0.98494    0.61274    0.30810    1.000
    N5728    N        0.98817    0.55351    0.26363    1.000
    Si5729   Si       0.95310    0.63497    0.29045    1.000
    Si5730   Si       0.96308    0.67632    0.35151    1.000
    N5731    N        0.97286    0.71999    0.35169    1.000
    N5732    N        0.96867    0.65687    0.25811    1.000
    Si5733   Si       0.94853    0.75151    0.33330    1.000
    N5734    N        0.93984    0.66618    0.31716    1.000
    N5735    N        0.98345    0.72830    0.25399    1.000
    Si5736   Si       0.97503    0.60076    0.47476    1.000
    N5737    N        0.93490    0.51204    0.45590    1.000
    N5738    N        0.93626    0.58004    0.46860    1.000
    N5739    N        0.96009    0.63821    0.48915    1.000
    Si5740   Si       0.94779    0.72616    0.39002    1.000
    N5741    N        0.98188    0.74735    0.48350    1.000
    N5742    N        0.98152    0.72062    0.41648    1.000
    Si5743   Si       0.96342    0.75016    0.44428    1.000
    N5744    N        0.96808    0.65531    0.39039    1.000
    N5745    N        0.96816    0.58987    0.58220    1.000
    N5746    N        0.96586    0.52666    0.54796    1.000
    Si5747   Si       0.96594    0.57055    0.54267    1.000
    Si5748   Si       0.98405    0.57318    0.62035    1.000
    Si5749   Si       0.96983    0.63339    0.58433    1.000
    Si5750   Si       0.97125    0.67404    0.51348    1.000
    N5751    N        0.97897    0.66556    0.55400    1.000
    N5752    N        0.93337    0.64667    0.60333    1.000
    Si5753   Si       0.96373    0.75826    0.52274    1.000
    Si5754   Si       0.93517    0.51581    0.63047    1.000
    N5755    N        0.97329    0.53370    0.64050    1.000
    Si5756   Si       0.97140    0.59476    0.69677    1.000
    N5757    N        0.97780    0.55524    0.71115    1.000
    Si5758   Si       0.98612    0.52209    0.68260    1.000
    N5759    N        0.98372    0.59949    0.65531    1.000
    N5760    N        0.97735    0.69093    0.72545    1.000
    Si5761   Si       0.94597    0.72286    0.72685    1.000
    N5762    N        0.96431    0.67045    0.65822    1.000
    N5763    N        0.94805    0.54349    0.83336    1.000
    N5764    N        0.94952    0.52833    0.76668    1.000
    Si5765   Si       0.95924    0.51357    0.80581    1.000
    Si5766   Si       0.98312    0.54412    0.85869    1.000
    N5767    N        0.94071    0.62199    0.83206    1.000
    Si5768   Si       0.98924    0.54024    0.75031    1.000
    N5769    N        0.97651    0.66793    0.85257    1.000
    Si5770   Si       0.98138    0.70666    0.83561    1.000
    N5771    N        0.96734    0.74241    0.85621    1.000
    Si5772   Si       0.95562    0.65659    0.80933    1.000
    N5773    N        0.94830    0.69981    0.80959    1.000
    N5774    N        0.93709    0.65036    0.76833    1.000
    Si5775   Si       0.97719    0.65423    0.74843    1.000
    Si5776   Si       0.95128    0.63697    0.87038    1.000
    N5777    N        0.98638    0.62093    0.89224    1.000
    Si5778   Si       0.96846    0.57338    0.97743    1.000
    Si5779   Si       0.93941    0.55520    0.91147    1.000
    N5780    N        0.98522    0.55294    0.90252    1.000
    N5781    N        0.93217    0.56634    0.95369    1.000
    N5782    N        0.98146    0.53990    0.99893    1.000
    Si5783   Si       0.94483    0.74293    0.89270    1.000
    N5784    N        0.95483    0.71964    0.99028    1.000
    N5785    N        0.94835    0.70956    0.91928    1.000
    N5786    N        0.95607    0.65972    0.95779    1.000
    Si5787   Si       0.97132    0.70030    0.95583    1.000
    Si5788   Si       0.95424    0.64082    0.99560    1.000
    Si5789   Si       0.97477    0.78593    0.07119    1.000
    N5790    N        0.95570    0.76578    0.03698    1.000
    N5791    N        0.93797    0.80646    0.08307    1.000
    Si5792   Si       0.95430    0.87282    0.03234    1.000
    N5793    N        0.97006    0.87603    0.07509    1.000
    Si5794   Si       0.93048    0.87536    0.09614    1.000
    N5795    N        0.98080    0.76066    0.10679    1.000
    N5796    N        0.95845    0.94851    0.08467    1.000
    N5797    N        0.94572    0.91457    0.02243    1.000
    Si5798   Si       0.97970    0.99745    0.02474    1.000
    N5799    N        0.93682    0.98364    0.02893    1.000
    Si5800   Si       0.93471    0.94625    0.04814    1.000
    Si5801   Si       0.93193    0.94664    0.11919    1.000
    N5802    N        0.96886    0.79274    0.23679    1.000
    Si5803   Si       0.96953    0.77603    0.14776    1.000
    Si5804   Si       0.96432    0.85258    0.15742    1.000
    N5805    N        0.98165    0.81414    0.16634    1.000
    Si5806   Si       0.94924    0.87330    0.22422    1.000
    N5807    N        0.93833    0.87400    0.18350    1.000
    N5808    N        0.97863    0.99773    0.18973    1.000
    Si5809   Si       0.95492    0.95915    0.19476    1.000
    N5810    N        0.95794    0.95580    0.15118    1.000
    N5811    N        0.97956    0.92286    0.20333    1.000
    Si5812   Si       0.95434    0.79963    0.27657    1.000
    N5813    N        0.95662    0.83922    0.29263    1.000
    N5814    N        0.97183    0.77157    0.30524    1.000
    Si5815   Si       0.97235    0.85614    0.33121    1.000
    N5816    N        0.96493    0.83791    0.36975    1.000
    N5817    N        0.93702    0.76652    0.37247    1.000
    N5818    N        0.94138    0.88847    0.32727    1.000
    Si5819   Si       0.96332    0.91959    0.34682    1.000
    Si5820   Si       0.94959    0.99032    0.27699    1.000
    N5821    N        0.94548    0.90324    0.25730    1.000
    Si5822   Si       0.98057    0.92867    0.24574    1.000
    N5823    N        0.97480    0.97093    0.24678    1.000
    N5824    N        0.93614    0.94118    0.37195    1.000
    N5825    N        0.98175    0.00518    0.30314    1.000
    N5826    N        0.98776    0.93927    0.31647    1.000
    Si5827   Si       0.94973    0.80389    0.39142    1.000
    Si5828   Si       0.97701    0.87092    0.39593    1.000
    N5829    N        0.96825    0.79084    0.42957    1.000
    N5830    N        0.94908    0.86402    0.49151    1.000
    Si5831   Si       0.98580    0.97156    0.49238    1.000
    N5832    N        0.98108    0.93123    0.47595    1.000
    N5833    N        0.98675    0.96981    0.42865    1.000
    Si5834   Si       0.98510    0.99564    0.39571    1.000
    N5835    N        0.95797    0.90318    0.41634    1.000
    Si5836   Si       0.98844    0.92926    0.43429    1.000
    Si5837   Si       0.96858    0.82886    0.50734    1.000
    Si5838   Si       0.94498    0.82359    0.57752    1.000
    N5839    N        0.97872    0.83546    0.55034    1.000
    N5840    N        0.94335    0.79603    0.51421    1.000
    N5841    N        0.94080    0.78363    0.59387    1.000
    N5842    N        0.96217    0.83832    0.61680    1.000
    N5843    N        0.97183    0.90724    0.59253    1.000
    N5844    N        0.94207    0.91838    0.52842    1.000
    Si5845   Si       0.96450    0.98196    0.60655    1.000
    N5846    N        0.94728    0.96476    0.57029    1.000
    Si5847   Si       0.97753    0.93048    0.55398    1.000
    N5848    N        0.95349    0.99661    0.50760    1.000
    Si5849   Si       0.93340    0.92565    0.60095    1.000
    Si5850   Si       0.97174    0.89857    0.50176    1.000
    Si5851   Si       0.95016    0.79552    0.69872    1.000
    N5852    N        0.96680    0.76133    0.72106    1.000
    Si5853   Si       0.96661    0.79434    0.62719    1.000
    N5854    N        0.95269    0.83898    0.68914    1.000
    Si5855   Si       0.97207    0.85522    0.72441    1.000
    N5856    N        0.94797    0.77758    0.66044    1.000
    N5857    N        0.93991    0.95598    0.63498    1.000
    Si5858   Si       0.95166    0.97959    0.72272    1.000
    Si5859   Si       0.92930    0.98960    0.65945    1.000
    Si5860   Si       0.96436    0.77706    0.82771    1.000
    Si5861   Si       0.94686    0.86651    0.79434    1.000
    N5862    N        0.93879    0.86406    0.75165    1.000
    N5863    N        0.94424    0.82937    0.81511    1.000
    Si5864   Si       0.98357    0.84660    0.83836    1.000
    N5865    N        0.95522    0.86818    0.86996    1.000
    N5866    N        0.98847    0.76900    0.79279    1.000
    N5867    N        0.95164    0.95576    0.76406    1.000
    Si5868   Si       0.94822    0.90901    0.85730    1.000
    N5869    N        0.93576    0.90607    0.81441    1.000
    N5870    N        0.98556    0.93094    0.86257    1.000
    N5871    N        0.96578    0.77513    0.91310    1.000
    N5872    N        0.94429    0.83739    0.92961    1.000
    Si5873   Si       0.95287    0.79855    0.94597    1.000
    Si5874   Si       0.96587    0.85477    0.97004    1.000
    N5875    N        0.98502    0.81313    0.97039    1.000
    N5876    N        0.93750    0.98243    0.88407    1.000
    Si5877   Si       0.95222    0.93072    0.93112    1.000
    Si5878   Si       0.98198    0.96992    0.88248    1.000
    N5879    N        0.95766    0.89478    0.95561    1.000
