# CIF file generated by openbabel 3.1.1, see https://openbabel.org
data_I
_chemical_name_common '3.01-32.aims'
_cell_length_a 39.9383
_cell_length_b 39.9383
_cell_length_c 39.9383
_cell_angle_alpha 90
_cell_angle_beta 90
_cell_angle_gamma 90
loop_
    _atom_site_label
    _atom_site_type_symbol
    _atom_site_fract_x
    _atom_site_fract_y
    _atom_site_fract_z
    _atom_site_occupancy
    Si0      Si       0.01307    0.04559    0.06547    1.000
    N1       N        0.00619    0.06183    0.02243    1.000
    N2       N        0.03508    0.12509    0.02805    1.000
    Si3      Si       0.04406    0.08516    0.03106    1.000
    Si4      Si       0.00696    0.18728    0.10889    1.000
    Si5      Si       0.02234    0.20103    0.03905    1.000
    N6       N        0.02723    0.23518    0.00939    1.000
    N7       N        0.00144    0.17948    0.00604    1.000
    N8       N        0.99455    0.20400    0.07056    1.000
    N9       N        0.03842    0.11787    0.14186    1.000
    N10      N        0.02555    0.05510    0.17606    1.000
    Si11     Si       0.99459    0.12156    0.14193    1.000
    N12      N        0.03994    0.06868    0.24005    1.000
    Si13     Si       0.01688    0.21752    0.23499    1.000
    N14      N        0.99558    0.21602    0.13924    1.000
    N15      N        0.03807    0.22329    0.19788    1.000
    Si16     Si       0.03659    0.22121    0.15564    1.000
    Si17     Si       0.01055    0.07036    0.32518    1.000
    N18      N        0.01764    0.02777    0.33659    1.000
    N19      N        0.99478    0.09683    0.35677    1.000
    Si20     Si       0.00316    0.08643    0.25198    1.000
    N21      N        0.01131    0.12951    0.24884    1.000
    N22      N        0.98820    0.06668    0.28912    1.000
    Si23     Si       0.02063    0.25330    0.29414    1.000
    N24      N        0.00321    0.22273    0.31946    1.000
    Si25     Si       0.01708    0.18079    0.32434    1.000
    N26      N        0.00477    0.25375    0.25419    1.000
    N27      N        0.04648    0.15162    0.30885    1.000
    N28      N        0.00017    0.16770    0.36813    1.000
    Si29     Si       0.04547    0.15139    0.26428    1.000
    Si30     Si       0.02112    0.09247    0.44667    1.000
    N31      N        0.02115    0.02436    0.48114    1.000
    N32      N        0.00143    0.05741    0.42948    1.000
    N33      N        0.02246    0.12759    0.42337    1.000
    Si34     Si       0.01715    0.12760    0.37979    1.000
    Si35     Si       0.03867    0.03214    0.44300    1.000
    N36      N        0.03662    0.00969    0.40483    1.000
    N37      N        0.99148    0.09114    0.47950    1.000
    N38      N        0.99864    0.24413    0.38600    1.000
    Si39     Si       0.04035    0.16140    0.44708    1.000
    Si40     Si       0.01946    0.20429    0.38858    1.000
    N41      N        0.00534    0.16440    0.47665    1.000
    N42      N        0.01516    0.23424    0.48931    1.000
    N43      N        0.02070    0.19973    0.43079    1.000
    Si44     Si       0.99444    0.20406    0.46606    1.000
    N45      N        0.02794    0.06802    0.53926    1.000
    N46      N        0.03092    0.09479    0.60297    1.000
    Si47     Si       0.03230    0.02637    0.52282    1.000
    N48      N        0.99856    0.12646    0.52679    1.000
    Si49     Si       0.99616    0.12027    0.61215    1.000
    N50      N        0.02965    0.18858    0.53735    1.000
    Si51     Si       0.02081    0.23214    0.53376    1.000
    N52      N        0.01380    0.22393    0.58571    1.000
    Si53     Si       0.03436    0.15095    0.51657    1.000
    Si54     Si       0.02261    0.18024    0.58041    1.000
    N55      N        0.04658    0.16950    0.61553    1.000
    N56      N        0.02347    0.02684    0.62956    1.000
    Si57     Si       0.03993    0.06734    0.63754    1.000
    Si58     Si       0.02592    0.06796    0.71837    1.000
    N59      N        0.01864    0.07778    0.67619    1.000
    N60      N        0.99093    0.04496    0.73614    1.000
    N61      N        0.03547    0.09789    0.74744    1.000
    Si62     Si       0.98970    0.24730    0.74059    1.000
    N63      N        0.04261    0.16558    0.74552    1.000
    N64      N        0.03107    0.23351    0.73827    1.000
    N65      N        0.99579    0.13980    0.64972    1.000
    Si66     Si       0.02843    0.16578    0.65530    1.000
    N67      N        0.02353    0.20367    0.67540    1.000
    Si68     Si       0.01244    0.09664    0.82266    1.000
    N69      N        0.03221    0.01812    0.79781    1.000
    Si70     Si       0.99611    0.03251    0.77717    1.000
    N71      N        0.01908    0.13583    0.80498    1.000
    N72      N        0.04882    0.07458    0.83239    1.000
    Si73     Si       0.01799    0.13569    0.76221    1.000
    N74      N        0.02195    0.20214    0.80197    1.000
    Si75     Si       0.02845    0.17037    0.83041    1.000
    N76      N        0.00732    0.17853    0.86649    1.000
    Si77     Si       0.04854    0.20440    0.76665    1.000
    Si78     Si       0.99456    0.04702    0.98279    1.000
    Si79     Si       0.02723    0.02968    0.91124    1.000
    N80      N        0.02781    0.04680    0.95273    1.000
    N81      N        0.03436    0.10341    0.89351    1.000
    N82      N        0.02111    0.12601    0.96068    1.000
    Si83     Si       0.99235    0.09475    0.89179    1.000
    N84      N        0.99229    0.04891    0.89346    1.000
    Si85     Si       0.00674    0.21396    0.97806    1.000
    N86      N        0.99868    0.24505    0.89506    1.000
    N87      N        0.02279    0.19901    0.94150    1.000
    Si88     Si       0.04446    0.25402    0.89461    1.000
    Si89     Si       0.99687    0.20036    0.90162    1.000
    Si90     Si       0.03106    0.15108    0.99429    1.000
    N91      N        0.02407    0.29764    0.04088    1.000
    N92      N        0.03199    0.31781    0.11235    1.000
    N93      N        0.99922    0.37312    0.08675    1.000
    Si94     Si       0.99055    0.33457    0.10468    1.000
    Si95     Si       0.04147    0.38770    0.08832    1.000
    N96      N        0.01143    0.39571    0.00651    1.000
    N97      N        0.99783    0.46598    0.05131    1.000
    Si98     Si       0.03282    0.46157    0.07743    1.000
    Si99     Si       0.99177    0.48691    0.01449    1.000
    N100     N        0.02407    0.45958    0.11902    1.000
    N101     N        0.04810    0.42257    0.06515    1.000
    N102     N        0.03896    0.33828    0.18064    1.000
    N103     N        0.04766    0.30472    0.24395    1.000
    Si104    Si       0.00342    0.29582    0.24030    1.000
    Si105    Si       0.99554    0.33427    0.17994    1.000
    N106     N        0.02043    0.49180    0.18065    1.000
    N107     N        0.00659    0.34917    0.35232    1.000
    Si108    Si       0.03209    0.31768    0.33725    1.000
    N109     N        0.01152    0.28868    0.31439    1.000
    N110     N        0.01975    0.38587    0.26278    1.000
    N111     N        0.03629    0.45073    0.30664    1.000
    Si112    Si       0.99620    0.44601    0.32364    1.000
    N113     N        0.01841    0.50078    0.25716    1.000
    N114     N        0.99853    0.47021    0.36159    1.000
    Si115    Si       0.01395    0.27298    0.47092    1.000
    Si116    Si       0.02149    0.37146    0.45186    1.000
    N117     N        0.03043    0.36761    0.40994    1.000
    Si118    Si       0.02534    0.27735    0.39915    1.000
    N119     N        0.04291    0.27757    0.43869    1.000
    Si120    Si       0.99520    0.34681    0.39980    1.000
    N121     N        0.99046    0.30462    0.40075    1.000
    N122     N        0.03666    0.46349    0.42776    1.000
    Si123    Si       0.03629    0.45815    0.38429    1.000
    N124     N        0.99208    0.47226    0.48035    1.000
    Si125    Si       0.00476    0.44451    0.45023    1.000
    N126     N        0.02475    0.41069    0.47044    1.000
    N127     N        0.00754    0.32643    0.56714    1.000
    Si128    Si       0.00951    0.30802    0.60548    1.000
    Si129    Si       0.03338    0.35958    0.55836    1.000
    N130     N        0.01839    0.30391    0.49854    1.000
    N131     N        0.04473    0.28322    0.61110    1.000
    Si132    Si       0.99196    0.30379    0.53211    1.000
    N133     N        0.04306    0.38527    0.59222    1.000
    N134     N        0.01577    0.39017    0.53387    1.000
    N135     N        0.99805    0.43796    0.57606    1.000
    Si136    Si       0.04053    0.42698    0.57744    1.000
    N137     N        0.02204    0.50283    0.58601    1.000
    Si138    Si       0.04566    0.41111    0.50742    1.000
    N139     N        0.00916    0.34035    0.63522    1.000
    Si140    Si       0.03239    0.37628    0.63292    1.000
    N141     N        0.02506    0.33899    0.70523    1.000
    Si142    Si       0.99489    0.33815    0.67570    1.000
    Si143    Si       0.01291    0.32344    0.74584    1.000
    Si144    Si       0.04032    0.44606    0.64336    1.000
    N145     N        0.01282    0.41446    0.64107    1.000
    N146     N        0.02245    0.44767    0.73325    1.000
    N147     N        0.01803    0.48295    0.65385    1.000
    Si148    Si       0.01891    0.36089    0.81388    1.000
    N149     N        0.99941    0.35356    0.77550    1.000
    N150     N        0.00605    0.42820    0.85457    1.000
    N151     N        0.01516    0.48104    0.79785    1.000
    Si152    Si       0.00804    0.48274    0.75650    1.000
    N153     N        0.04659    0.39412    0.80671    1.000
    Si154    Si       0.04656    0.41813    0.84269    1.000
    Si155    Si       0.99764    0.36328    0.98153    1.000
    N156     N        0.02245    0.32506    0.89195    1.000
    Si157    Si       0.01988    0.31295    0.93382    1.000
    N158     N        0.03057    0.34991    0.95619    1.000
    N159     N        0.04486    0.27760    0.93300    1.000
    Si160    Si       0.99045    0.44889    0.88808    1.000
    N161     N        0.02328    0.44629    0.91539    1.000
    Si162    Si       0.01349    0.47337    0.94900    1.000
    N163     N        0.98781    0.50139    0.93119    1.000
    N164     N        0.98862    0.45758    0.98269    1.000
    Si165    Si       0.00648    0.58971    0.07207    1.000
    Si166    Si       0.02527    0.55161    0.01506    1.000
    N167     N        0.00552    0.62240    0.04480    1.000
    N168     N        0.04077    0.59030    0.09576    1.000
    N169     N        0.99390    0.55666    0.04679    1.000
    N170     N        0.03089    0.50743    0.01464    1.000
    Si171    Si       0.02542    0.64864    0.01660    1.000
    N172     N        0.02036    0.68677    0.06847    1.000
    Si173    Si       0.03200    0.68819    0.10932    1.000
    N174     N        0.04852    0.73694    0.02634    1.000
    N175     N        0.98970    0.75612    0.10407    1.000
    N176     N        0.00928    0.62005    0.15057    1.000
    Si177    Si       0.00878    0.53347    0.18082    1.000
    N178     N        0.04124    0.55738    0.19379    1.000
    N179     N        0.01957    0.61073    0.23880    1.000
    N180     N        0.98800    0.66918    0.19524    1.000
    N181     N        0.01176    0.74219    0.16118    1.000
    Si182    Si       0.02899    0.75254    0.12434    1.000
    N183     N        0.99613    0.69002    0.13298    1.000
    N184     N        0.99198    0.72943    0.22679    1.000
    Si185    Si       0.02067    0.65013    0.22033    1.000
    Si186    Si       0.01184    0.60206    0.28139    1.000
    Si187    Si       0.03192    0.53603    0.27970    1.000
    N188     N        0.99749    0.56210    0.27926    1.000
    N189     N        0.04141    0.52345    0.31975    1.000
    Si190    Si       0.01953    0.51280    0.35604    1.000
    N191     N        0.04734    0.59816    0.30615    1.000
    N192     N        0.02489    0.63537    0.36506    1.000
    N193     N        0.02382    0.67405    0.25720    1.000
    N194     N        0.99582    0.73328    0.29339    1.000
    Si195    Si       0.03114    0.75588    0.28118    1.000
    Si196    Si       0.99223    0.70260    0.26214    1.000
    Si197    Si       0.01097    0.51048    0.48428    1.000
    N198     N        0.01960    0.52301    0.44327    1.000
    N199     N        0.01475    0.58949    0.41889    1.000
    Si200    Si       0.99894    0.55009    0.41893    1.000
    Si201    Si       0.02625    0.62924    0.40903    1.000
    N202     N        0.04324    0.57922    0.48715    1.000
    N203     N        0.99000    0.54060    0.37680    1.000
    Si204    Si       0.01301    0.68429    0.44369    1.000
    N205     N        0.99320    0.65734    0.41643    1.000
    N206     N        0.99240    0.72250    0.44964    1.000
    N207     N        0.00070    0.66048    0.47963    1.000
    Si208    Si       0.01561    0.74145    0.48391    1.000
    N209     N        0.05042    0.69677    0.42370    1.000
    Si210    Si       0.01133    0.57285    0.51635    1.000
    Si211    Si       0.01350    0.54665    0.58798    1.000
    Si212    Si       0.02246    0.61999    0.56877    1.000
    N213     N        0.02798    0.57625    0.55845    1.000
    N214     N        0.99714    0.61238    0.60382    1.000
    N215     N        0.00627    0.66014    0.55248    1.000
    Si216    Si       0.00272    0.68879    0.58334    1.000
    Si217    Si       0.02578    0.66901    0.51306    1.000
    N218     N        0.03339    0.71129    0.51030    1.000
    N219     N        0.03826    0.71165    0.59563    1.000
    N220     N        0.01643    0.55516    0.63036    1.000
    N221     N        0.00503    0.61443    0.66855    1.000
    Si222    Si       0.03319    0.58405    0.65994    1.000
    Si223    Si       0.03546    0.52242    0.65048    1.000
    N224     N        0.01467    0.52116    0.73705    1.000
    N225     N        0.03843    0.58702    0.74007    1.000
    Si226    Si       0.99554    0.60123    0.74763    1.000
    N227     N        0.03825    0.70263    0.72580    1.000
    Si228    Si       0.00073    0.64259    0.63305    1.000
    N229     N        0.04040    0.65916    0.63473    1.000
    Si230    Si       0.00204    0.72203    0.74105    1.000
    N231     N        0.00895    0.73597    0.67620    1.000
    Si232    Si       0.04823    0.73085    0.69397    1.000
    N233     N        0.02012    0.58681    0.85731    1.000
    N234     N        0.03453    0.51809    0.84633    1.000
    Si235    Si       0.01950    0.60602    0.81910    1.000
    Si236    Si       0.00450    0.54655    0.86438    1.000
    N237     N        0.99171    0.58884    0.78941    1.000
    N238     N        0.99517    0.70279    0.77796    1.000
    Si239    Si       0.01853    0.68096    0.85527    1.000
    N240     N        0.99815    0.72069    0.84506    1.000
    N241     N        0.00607    0.64894    0.82614    1.000
    Si242    Si       0.00481    0.66043    0.78234    1.000
    Si243    Si       0.02684    0.75116    0.86327    1.000
    Si244    Si       0.02134    0.53159    0.94221    1.000
    Si245    Si       0.02948    0.59209    0.90007    1.000
    N246     N        0.01377    0.55874    0.97398    1.000
    N247     N        0.03016    0.54984    0.90456    1.000
    N248     N        0.03086    0.62298    0.98145    1.000
    Si249    Si       0.99782    0.59951    0.96542    1.000
    N250     N        0.99645    0.60697    0.92375    1.000
    N251     N        0.03257    0.73763    0.90481    1.000
    N252     N        0.00839    0.70638    0.96373    1.000
    Si253    Si       0.04038    0.71574    0.99060    1.000
    Si254    Si       0.00135    0.71238    0.92122    1.000
    N255     N        0.99911    0.67544    0.89384    1.000
    N256     N        0.00275    0.84672    0.07511    1.000
    Si257    Si       0.00202    0.80391    0.09506    1.000
    Si258    Si       0.04058    0.84234    0.05759    1.000
    N259     N        0.04086    0.79852    0.06226    1.000
    N260     N        0.04345    0.85137    0.01572    1.000
    N261     N        0.01679    0.79094    0.99838    1.000
    N262     N        0.01044    0.00489    0.07338    1.000
    Si263    Si       0.02160    0.94787    0.01417    1.000
    N264     N        0.00190    0.90894    0.00358    1.000
    N265     N        0.03851    0.79571    0.12492    1.000
    N266     N        0.03349    0.84489    0.17783    1.000
    Si267    Si       0.99267    0.82770    0.17199    1.000
    Si268    Si       0.01408    0.75914    0.20217    1.000
    N269     N        0.01234    0.91216    0.17863    1.000
    Si270    Si       0.01938    0.95224    0.19332    1.000
    N271     N        0.02700    0.95292    0.23688    1.000
    Si272    Si       0.04684    0.88711    0.18056    1.000
    N273     N        0.00699    0.84557    0.30113    1.000
    N274     N        0.02053    0.78341    0.24930    1.000
    N275     N        0.04418    0.78443    0.31046    1.000
    Si276    Si       0.04627    0.82546    0.29410    1.000
    Si277    Si       0.99899    0.88550    0.28318    1.000
    Si278    Si       0.03226    0.00197    0.30325    1.000
    N279     N        0.02919    0.89928    0.34946    1.000
    Si280    Si       0.01015    0.93795    0.33769    1.000
    N281     N        0.04154    0.96586    0.32423    1.000
    N282     N        0.04046    0.90169    0.28196    1.000
    N283     N        0.99764    0.99684    0.27832    1.000
    Si284    Si       0.00899    0.00337    0.37158    1.000
    Si285    Si       0.02149    0.86906    0.37664    1.000
    N286     N        0.02453    0.82662    0.44311    1.000
    Si287    Si       0.04779    0.80770    0.47458    1.000
    N288     N        0.00498    0.87951    0.48690    1.000
    N289     N        0.02544    0.76187    0.37784    1.000
    N290     N        0.04978    0.76467    0.47229    1.000
    Si291    Si       0.01384    0.93044    0.41213    1.000
    N292     N        0.00024    0.95673    0.37594    1.000
    N293     N        0.01470    0.88786    0.41675    1.000
    N294     N        0.02600    0.81569    0.51030    1.000
    Si295    Si       0.02648    0.85862    0.51598    1.000
    N296     N        0.01946    0.77400    0.56643    1.000
    Si297    Si       0.01406    0.87469    0.58765    1.000
    N298     N        0.01860    0.83613    0.60936    1.000
    N299     N        0.00161    0.87089    0.54841    1.000
    Si300    Si       0.01852    0.79434    0.60738    1.000
    Si301    Si       0.99805    0.79088    0.53330    1.000
    N302     N        0.01196    0.93466    0.52629    1.000
    Si303    Si       0.02760    0.95831    0.56149    1.000
    N304     N        0.01404    0.99862    0.55271    1.000
    N305     N        0.03460    0.95750    0.60671    1.000
    Si306    Si       0.02282    0.79136    0.72194    1.000
    N307     N        0.03105    0.86404    0.66819    1.000
    N308     N        0.00500    0.80090    0.68186    1.000
    N309     N        0.04005    0.82599    0.74597    1.000
    Si310    Si       0.99334    0.84363    0.67904    1.000
    Si311    Si       0.01556    0.86153    0.74544    1.000
    N312     N        0.99656    0.76976    0.74943    1.000
    Si313    Si       0.03687    0.90347    0.68529    1.000
    N314     N        0.00016    0.99436    0.68793    1.000
    N315     N        0.00351    0.92878    0.67081    1.000
    Si316    Si       0.99720    0.94016    0.62767    1.000
    N317     N        0.04249    0.89492    0.72779    1.000
    Si318    Si       0.04436    0.00155    0.68936    1.000
    N319     N        0.01458    0.79546    0.85860    1.000
    N320     N        0.01904    0.86942    0.84273    1.000
    Si321    Si       0.03791    0.83301    0.85654    1.000
    N322     N        0.04108    0.95156    0.77548    1.000
    N323     N        0.00228    0.88650    0.77865    1.000
    Si324    Si       0.01787    0.92215    0.75520    1.000
    N325     N        0.01051    0.94641    0.83488    1.000
    Si326    Si       0.01818    0.97506    0.80271    1.000
    Si327    Si       0.03440    0.90901    0.84804    1.000
    N328     N        0.05053    0.84445    0.89493    1.000
    Si329    Si       0.02085    0.81000    0.95972    1.000
    N330     N        0.01898    0.85527    0.95318    1.000
    Si331    Si       0.01880    0.87265    0.91112    1.000
    Si332    Si       0.00932    0.86665    0.99530    1.000
    N333     N        0.02724    0.98664    0.91611    1.000
    N334     N        0.03788    0.97002    0.97863    1.000
    Si335    Si       0.00433    0.97678    0.95197    1.000
    N336     N        0.03513    0.91155    0.89239    1.000
    Si337    Si       0.08761    0.05941    0.08576    1.000
    N338     N        0.07399    0.07251    0.00444    1.000
    N339     N        0.08418    0.01507    0.07573    1.000
    N340     N        0.04835    0.07038    0.07238    1.000
    Si341    Si       0.08198    0.18297    0.09484    1.000
    N342     N        0.08807    0.23683    0.03134    1.000
    Si343    Si       0.10292    0.25322    0.06932    1.000
    Si344    Si       0.09366    0.20546    0.00258    1.000
    N345     N        0.10248    0.22274    0.10235    1.000
    N346     N        0.05650    0.18599    0.06111    1.000
    N347     N        0.09936    0.06739    0.12859    1.000
    Si348    Si       0.05934    0.05532    0.20445    1.000
    N349     N        0.08525    0.08867    0.19108    1.000
    Si350    Si       0.07676    0.09749    0.14727    1.000
    N351     N        0.07491    0.01311    0.21302    1.000
    Si352    Si       0.09283    0.12894    0.20816    1.000
    N353     N        0.09875    0.13531    0.14246    1.000
    N354     N        0.05997    0.25450    0.14202    1.000
    N355     N        0.10230    0.20682    0.17100    1.000
    Si356    Si       0.10159    0.23881    0.14310    1.000
    Si357    Si       0.07604    0.20105    0.20884    1.000
    N358     N        0.06494    0.15996    0.19553    1.000
    N359     N        0.10435    0.22134    0.23607    1.000
    Si360    Si       0.06045    0.15411    0.15247    1.000
    N361     N        0.04843    0.18578    0.12508    1.000
    Si362    Si       0.06595    0.06145    0.27512    1.000
    Si363    Si       0.06841    0.11701    0.32531    1.000
    N364     N        0.05848    0.12136    0.36664    1.000
    N365     N        0.06588    0.01826    0.28079    1.000
    N366     N        0.05033    0.08165    0.30999    1.000
    N367     N        0.10700    0.07056    0.26745    1.000
    N368     N        0.08325    0.13220    0.25026    1.000
    Si369    Si       0.09211    0.19536    0.34799    1.000
    Si370    Si       0.08335    0.21800    0.27400    1.000
    N371     N        0.06453    0.25291    0.28925    1.000
    N372     N        0.10594    0.20401    0.30685    1.000
    N373     N        0.04919    0.19456    0.25504    1.000
    N374     N        0.05043    0.20143    0.35874    1.000
    N375     N        0.05991    0.07279    0.44848    1.000
    Si376    Si       0.09921    0.01844    0.48275    1.000
    Si377    Si       0.10063    0.08518    0.44866    1.000
    N378     N        0.06305    0.14154    0.48467    1.000
    Si379    Si       0.10208    0.20298    0.41484    1.000
    N380     N        0.07760    0.16829    0.42084    1.000
    Si381    Si       0.09042    0.13592    0.39261    1.000
    N382     N        0.09735    0.23417    0.44436    1.000
    N383     N        0.08563    0.06999    0.57268    1.000
    Si384    Si       0.09429    0.03007    0.55756    1.000
    N385     N        0.07522    0.02213    0.51944    1.000
    N386     N        0.09952    0.12731    0.60469    1.000
    Si387    Si       0.05027    0.09278    0.56537    1.000
    N388     N        0.05826    0.13170    0.54902    1.000
    Si389    Si       0.09622    0.14519    0.56556    1.000
    N390     N        0.05812    0.25093    0.54790    1.000
    Si391    Si       0.05032    0.24765    0.58940    1.000
    N392     N        0.10823    0.18792    0.57074    1.000
    N393     N        0.09789    0.12329    0.72701    1.000
    N394     N        0.08307    0.06264    0.64070    1.000
    Si395    Si       0.09211    0.02908    0.73616    1.000
    N396     N        0.05296    0.03391    0.71578    1.000
    Si397    Si       0.10517    0.02787    0.66022    1.000
    N398     N        0.08467    0.20128    0.71261    1.000
    N399     N        0.08055    0.23434    0.61700    1.000
    N400     N        0.06498    0.14852    0.67191    1.000
    Si401    Si       0.05192    0.22713    0.69876    1.000
    Si402    Si       0.07296    0.15765    0.71370    1.000
    Si403    Si       0.08625    0.15644    0.63300    1.000
    N404     N        0.08453    0.05781    0.76986    1.000
    Si405    Si       0.06530    0.04494    0.80704    1.000
    Si406    Si       0.07789    0.10067    0.76057    1.000
    N407     N        0.09475    0.01757    0.82712    1.000
    N408     N        0.10400    0.10487    0.86367    1.000
    N409     N        0.09441    0.12053    0.79461    1.000
    Si410    Si       0.08673    0.00850    0.86897    1.000
    Si411    Si       0.09895    0.13838    0.83224    1.000
    N412     N        0.06990    0.16895    0.84195    1.000
    N413     N        0.08765    0.21065    0.77960    1.000
    Si414    Si       0.08731    0.19820    0.86998    1.000
    N415     N        0.10694    0.22376    0.84157    1.000
    Si416    Si       0.06601    0.08232    0.87180    1.000
    N417     N        0.06426    0.04003    0.88777    1.000
    N418     N        0.09090    0.01733    0.96542    1.000
    Si419    Si       0.06950    0.05496    0.96503    1.000
    N420     N        0.08238    0.08783    0.93790    1.000
    Si421    Si       0.05196    0.11944    0.93087    1.000
    Si422    Si       0.06614    0.19430    0.94342    1.000
    N423     N        0.07905    0.15493    0.92804    1.000
    N424     N        0.06371    0.17799    0.98946    1.000
    N425     N        0.08907    0.22632    0.96350    1.000
    N426     N        0.06618    0.21822    0.90218    1.000
    N427     N        0.07671    0.28615    0.07914    1.000
    N428     N        0.06354    0.35599    0.06745    1.000
    Si429    Si       0.09745    0.36776    0.04343    1.000
    Si430    Si       0.05554    0.26667    0.02088    1.000
    N431     N        0.07368    0.38115    0.00867    1.000
    Si432    Si       0.06401    0.29024    0.11970    1.000
    Si433    Si       0.04813    0.31731    0.07034    1.000
    N434     N        0.06552    0.48944    0.07095    1.000
    Si435    Si       0.06839    0.49023    0.02548    1.000
    N436     N        0.07030    0.44883    0.00935    1.000
    Si437    Si       0.04783    0.41420    0.02293    1.000
    Si438    Si       0.09237    0.51106    0.09709    1.000
    N439     N        0.07711    0.36866    0.23565    1.000
    N440     N        0.08949    0.32032    0.13971    1.000
    Si441    Si       0.06458    0.33253    0.21511    1.000
    Si442    Si       0.05555    0.34441    0.14022    1.000
    N443     N        0.10348    0.31826    0.20519    1.000
    N444     N        0.07146    0.44004    0.17268    1.000
    Si445    Si       0.08844    0.44993    0.21284    1.000
    N446     N        0.08064    0.50133    0.14072    1.000
    N447     N        0.06075    0.38553    0.12822    1.000
    N448     N        0.09841    0.49135    0.21185    1.000
    Si449    Si       0.09336    0.40827    0.14949    1.000
    Si450    Si       0.04947    0.47367    0.15297    1.000
    N451     N        0.06130    0.43819    0.24286    1.000
    Si452    Si       0.08866    0.36020    0.32253    1.000
    Si453    Si       0.07202    0.29614    0.27787    1.000
    N454     N        0.06429    0.32618    0.30834    1.000
    N455     N        0.08270    0.35422    0.36631    1.000
    N456     N        0.05200    0.29536    0.37069    1.000
    N457     N        0.07715    0.39646    0.30364    1.000
    Si458    Si       0.06774    0.42995    0.32918    1.000
    N459     N        0.08292    0.49140    0.27820    1.000
    Si460    Si       0.06056    0.39860    0.26239    1.000
    N461     N        0.09628    0.46269    0.33489    1.000
    Si462    Si       0.08030    0.50198    0.31963    1.000
    Si463    Si       0.04671    0.46984    0.26853    1.000
    N464     N        0.05028    0.42080    0.36822    1.000
    Si465    Si       0.09362    0.31028    0.37553    1.000
    N466     N        0.05594    0.35380    0.46932    1.000
    Si467    Si       0.08549    0.27544    0.44671    1.000
    N468     N        0.08480    0.28976    0.48965    1.000
    Si469    Si       0.09194    0.37858    0.46136    1.000
    Si470    Si       0.06275    0.38483    0.38982    1.000
    N471     N        0.10710    0.30210    0.41708    1.000
    N472     N        0.05205    0.49911    0.38147    1.000
    N473     N        0.09293    0.39290    0.42039    1.000
    N474     N        0.08606    0.41115    0.48992    1.000
    Si475    Si       0.05384    0.50478    0.42454    1.000
    N476     N        0.06441    0.34118    0.53673    1.000
    Si477    Si       0.09326    0.27066    0.52882    1.000
    Si478    Si       0.05790    0.32258    0.49809    1.000
    Si479    Si       0.10411    0.33823    0.55462    1.000
    N480     N        0.10582    0.35082    0.59573    1.000
    Si481    Si       0.06263    0.49488    0.59782    1.000
    N482     N        0.06587    0.45143    0.60628    1.000
    N483     N        0.05740    0.43906    0.53829    1.000
    N484     N        0.08826    0.51117    0.56476    1.000
    Si485    Si       0.08917    0.50872    0.52217    1.000
    Si486    Si       0.07383    0.27079    0.64309    1.000
    N487     N        0.09050    0.32316    0.70035    1.000
    N488     N        0.06988    0.37047    0.65798    1.000
    Si489    Si       0.07709    0.28965    0.72453    1.000
    Si490    Si       0.06490    0.35892    0.70207    1.000
    N491     N        0.06496    0.26604    0.68691    1.000
    Si492    Si       0.10533    0.37409    0.63213    1.000
    N493     N        0.06818    0.39112    0.73293    1.000
    N494     N        0.09809    0.45353    0.72877    1.000
    Si495    Si       0.05927    0.43286    0.72155    1.000
    N496     N        0.06508    0.43783    0.67901    1.000
    Si497    Si       0.07274    0.31708    0.79459    1.000
    N498     N        0.09905    0.35051    0.78244    1.000
    N499     N        0.05293    0.30703    0.75663    1.000
    Si500    Si       0.05976    0.32306    0.86913    1.000
    N501     N        0.10088    0.28758    0.80716    1.000
    N502     N        0.04686    0.33043    0.82698    1.000
    Si503    Si       0.05046    0.48795    0.81888    1.000
    Si504    Si       0.07908    0.38931    0.77631    1.000
    N505     N        0.07098    0.45353    0.83766    1.000
    Si506    Si       0.10394    0.45285    0.86545    1.000
    N507     N        0.06837    0.27897    0.86691    1.000
    N508     N        0.10224    0.33865    0.88225    1.000
    Si509    Si       0.08198    0.26896    0.95264    1.000
    Si510    Si       0.06753    0.36934    0.96682    1.000
    N511     N        0.07580    0.29009    0.99103    1.000
    N512     N        0.04868    0.49816    0.94894    1.000
    N513     N        0.07510    0.40889    0.94827    1.000
    Si514    Si       0.08829    0.49061    0.93266    1.000
    Si515    Si       0.06042    0.42613    0.91179    1.000
    N516     N        0.06590    0.39880    0.87818    1.000
    N517     N        0.08776    0.45758    0.90570    1.000
    Si518    Si       0.09635    0.43530    0.97505    1.000
    Si519    Si       0.07743    0.58151    0.07358    1.000
    N520     N        0.06122    0.56629    0.03467    1.000
    Si521    Si       0.09565    0.55946    0.00852    1.000
    N522     N        0.09848    0.55431    0.09854    1.000
    N523     N        0.09632    0.61867    0.07800    1.000
    N524     N        0.10137    0.51514    0.01509    1.000
    Si525    Si       0.09993    0.72937    0.09930    1.000
    N526     N        0.05780    0.67765    0.01278    1.000
    N527     N        0.09275    0.69354    0.07257    1.000
    Si528    Si       0.09422    0.65710    0.09703    1.000
    Si529    Si       0.05664    0.70209    0.04924    1.000
    Si530    Si       0.10136    0.67256    0.00405    1.000
    N531     N        0.05612    0.72490    0.11066    1.000
    N532     N        0.05838    0.65569    0.11954    1.000
    N533     N        0.08921    0.59628    0.22045    1.000
    Si534    Si       0.08817    0.62080    0.18676    1.000
    N535     N        0.08451    0.60164    0.14922    1.000
    Si536    Si       0.04990    0.58093    0.22653    1.000
    Si537    Si       0.04729    0.61527    0.12902    1.000
    N538     N        0.05857    0.65262    0.19822    1.000
    Si539    Si       0.09217    0.67510    0.21434    1.000
    N540     N        0.09687    0.71826    0.20836    1.000
    Si541    Si       0.09756    0.73523    0.24802    1.000
    Si542    Si       0.08574    0.57469    0.31581    1.000
    N543     N        0.06323    0.55644    0.25894    1.000
    N544     N        0.08659    0.60134    0.35287    1.000
    Si545    Si       0.05671    0.62860    0.33634    1.000
    Si546    Si       0.05952    0.68222    0.28014    1.000
    N547     N        0.06974    0.66520    0.31742    1.000
    N548     N        0.06238    0.72682    0.27372    1.000
    N549     N        0.07036    0.72557    0.35534    1.000
    Si550    Si       0.09288    0.69114    0.34673    1.000
    N551     N        0.09638    0.67213    0.25672    1.000
    Si552    Si       0.06669    0.61677    0.47633    1.000
    N553     N        0.08139    0.53798    0.43741    1.000
    Si554    Si       0.06996    0.54649    0.47807    1.000
    N555     N        0.08645    0.75232    0.41592    1.000
    Si556    Si       0.08196    0.66605    0.42392    1.000
    Si557    Si       0.08828    0.74841    0.45958    1.000
    N558     N        0.09234    0.66238    0.38290    1.000
    Si559    Si       0.05240    0.73108    0.39747    1.000
    N560     N        0.05543    0.63552    0.43827    1.000
    N561     N        0.09777    0.71233    0.48101    1.000
    N562     N        0.06397    0.63038    0.57842    1.000
    N563     N        0.10283    0.54570    0.50528    1.000
    N564     N        0.05303    0.50941    0.49722    1.000
    N565     N        0.05948    0.64046    0.51202    1.000
    Si566    Si       0.08579    0.64201    0.54543    1.000
    Si567    Si       0.07804    0.71542    0.51994    1.000
    N568     N        0.09581    0.68419    0.54474    1.000
    N569     N        0.08059    0.74862    0.54730    1.000
    Si570    Si       0.05235    0.74995    0.58224    1.000
    Si571    Si       0.07271    0.63276    0.62007    1.000
    N572     N        0.07297    0.52175    0.63041    1.000
    N573     N        0.09282    0.52783    0.73308    1.000
    Si574    Si       0.09642    0.55740    0.64508    1.000
    N575     N        0.07098    0.59317    0.63935    1.000
    Si576    Si       0.05010    0.54571    0.72761    1.000
    N577     N        0.04459    0.54999    0.68494    1.000
    N578     N        0.07400    0.72105    0.66076    1.000
    N579     N        0.09920    0.67012    0.62154    1.000
    Si580    Si       0.06268    0.69454    0.62920    1.000
    N581     N        0.10388    0.67464    0.74236    1.000
    Si582    Si       0.06249    0.60881    0.76861    1.000
    Si583    Si       0.05981    0.54795    0.82494    1.000
    N584     N        0.09207    0.55551    0.85238    1.000
    N585     N        0.07738    0.51798    0.79839    1.000
    N586     N        0.06156    0.58829    0.80704    1.000
    Si587    Si       0.09766    0.59529    0.82924    1.000
    N588     N        0.09310    0.62858    0.85556    1.000
    Si589    Si       0.08179    0.71610    0.82417    1.000
    N590     N        0.07240    0.71706    0.78274    1.000
    N591     N        0.05987    0.68990    0.85324    1.000
    Si592    Si       0.06249    0.68487    0.75579    1.000
    Si593    Si       0.07673    0.75373    0.75685    1.000
    Si594    Si       0.10055    0.67142    0.86488    1.000
    N595     N        0.06659    0.75412    0.84097    1.000
    N596     N        0.04693    0.64861    0.77255    1.000
    N597     N        0.08429    0.57757    0.97166    1.000
    N598     N        0.06425    0.61317    0.91706    1.000
    Si599    Si       0.07049    0.61843    0.96145    1.000
    Si600    Si       0.10100    0.61755    0.89610    1.000
    N601     N        0.10392    0.52692    0.91795    1.000
    Si602    Si       0.10528    0.74970    0.99140    1.000
    N603     N        0.07244    0.73363    0.96644    1.000
    Si604    Si       0.06323    0.75201    0.92838    1.000
    N605     N        0.10118    0.64811    0.96834    1.000
    N606     N        0.10250    0.74729    0.90828    1.000
    Si607    Si       0.07083    0.80485    0.09741    1.000
    N608     N        0.07189    0.84886    0.08604    1.000
    N609     N        0.09377    0.78668    0.01001    1.000
    N610     N        0.09667    0.77260    0.09053    1.000
    Si611    Si       0.05127    0.78035    0.02411    1.000
    Si612    Si       0.08758    0.93567    0.02788    1.000
    N613     N        0.05262    0.95562    0.04347    1.000
    N614     N        0.06309    0.96481    0.10862    1.000
    Si615    Si       0.04983    0.98672    0.07400    1.000
    N616     N        0.07438    0.90554    0.00075    1.000
    Si617    Si       0.10446    0.98499    0.10755    1.000
    Si618    Si       0.09139    0.86246    0.12258    1.000
    N619     N        0.05032    0.78395    0.19445    1.000
    Si620    Si       0.05879    0.79907    0.23437    1.000
    N621     N        0.09351    0.82339    0.14192    1.000
    Si622    Si       0.05566    0.81115    0.16124    1.000
    Si623    Si       0.09205    0.86315    0.23828    1.000
    N624     N        0.09669    0.77740    0.24451    1.000
    N625     N        0.05852    0.95651    0.17453    1.000
    N626     N        0.06859    0.89603    0.21757    1.000
    Si627    Si       0.08904    0.98640    0.18202    1.000
    N628     N        0.10149    0.00566    0.14619    1.000
    Si629    Si       0.07430    0.93707    0.14008    1.000
    N630     N        0.07045    0.89373    0.14467    1.000
    N631     N        0.07170    0.85016    0.32067    1.000
    Si632    Si       0.08814    0.83832    0.35962    1.000
    N633     N        0.06288    0.83692    0.25430    1.000
    N634     N        0.08730    0.79637    0.36274    1.000
    Si635    Si       0.05787    0.76790    0.34799    1.000
    Si636    Si       0.05842    0.89125    0.31876    1.000
    N637     N        0.09001    0.91928    0.33048    1.000
    Si638    Si       0.08278    0.96119    0.33741    1.000
    Si639    Si       0.08564    0.99577    0.25181    1.000
    N640     N        0.09285    0.95140    0.25457    1.000
    Si641    Si       0.05727    0.92509    0.24905    1.000
    Si642    Si       0.09342    0.86935    0.48502    1.000
    N643     N        0.08763    0.82669    0.47094    1.000
    N644     N        0.05715    0.84888    0.38773    1.000
    Si645    Si       0.04848    0.86112    0.42988    1.000
    N646     N        0.09069    0.93387    0.49076    1.000
    N647     N        0.05263    0.94468    0.42504    1.000
    Si648    Si       0.08603    0.92988    0.44704    1.000
    Si649    Si       0.06927    0.98213    0.41358    1.000
    N650     N        0.08893    0.97308    0.37643    1.000
    N651     N        0.07534    0.00463    0.45122    1.000
    N652     N        0.07777    0.88703    0.44818    1.000
    N653     N        0.05853    0.77889    0.61551    1.000
    N654     N        0.06447    0.87781    0.51657    1.000
    N655     N        0.05260    0.88829    0.60388    1.000
    N656     N        0.06719    0.94271    0.55219    1.000
    N657     N        0.08234    0.99885    0.58572    1.000
    Si658    Si       0.05628    0.92002    0.51556    1.000
    Si659    Si       0.10320    0.96124    0.57137    1.000
    Si660    Si       0.06565    0.92722    0.61683    1.000
    N661     N        0.10583    0.93808    0.60621    1.000
    Si662    Si       0.05435    0.99573    0.61803    1.000
    Si663    Si       0.09870    0.79608    0.62591    1.000
    N664     N        0.09106    0.83964    0.63551    1.000
    Si665    Si       0.05105    0.85432    0.63253    1.000
    N666     N        0.05749    0.76487    0.72043    1.000
    N667     N        0.10236    0.86952    0.70379    1.000
    Si668    Si       0.08295    0.88822    0.73875    1.000
    Si669    Si       0.08878    0.95843    0.67649    1.000
    N670     N        0.06770    0.92388    0.66047    1.000
    N671     N        0.06123    0.96825    0.71104    1.000
    N672     N        0.07421    0.99631    0.65685    1.000
    N673     N        0.07299    0.82676    0.83295    1.000
    N674     N        0.08287    0.78569    0.78483    1.000
    Si675    Si       0.09087    0.86503    0.81822    1.000
    Si676    Si       0.09047    0.78734    0.82746    1.000
    N677     N        0.08850    0.86417    0.77578    1.000
    Si678    Si       0.07974    0.82383    0.76159    1.000
    N679     N        0.07438    0.90605    0.83173    1.000
    Si680    Si       0.09814    0.93805    0.84527    1.000
    Si681    Si       0.07694    0.96131    0.75191    1.000
    N682     N        0.10229    0.99397    0.76016    1.000
    N683     N        0.07310    0.96664    0.86867    1.000
    N684     N        0.10259    0.92634    0.74656    1.000
    N685     N        0.05550    0.79461    0.93901    1.000
    Si686    Si       0.07750    0.82656    0.92197    1.000
    N687     N        0.09264    0.84968    0.95500    1.000
    Si688    Si       0.08176    0.86443    0.99505    1.000
    Si689    Si       0.07999    0.97539    0.96896    1.000
    N690     N        0.08585    0.95228    0.93100    1.000
    Si691    Si       0.05167    0.95095    0.90369    1.000
    Si692    Si       0.15382    0.09340    0.07317    1.000
    Si693    Si       0.11423    0.08624    0.01587    1.000
    N694     N        0.14099    0.05001    0.00683    1.000
    N695     N        0.15915    0.10974    0.11203    1.000
    N696     N        0.11274    0.08535    0.06049    1.000
    N697     N        0.16213    0.12421    0.04359    1.000
    N698     N        0.11871    0.15908    0.08556    1.000
    N699     N        0.12801    0.17962    0.01475    1.000
    Si700    Si       0.14606    0.16526    0.05154    1.000
    Si701    Si       0.12649    0.04155    0.15152    1.000
    N702     N        0.14773    0.02759    0.19106    1.000
    Si703    Si       0.13494    0.14383    0.12191    1.000
    N704     N        0.13279    0.14802    0.20245    1.000
    Si705    Si       0.14542    0.23691    0.23547    1.000
    N706     N        0.15922    0.17127    0.14419    1.000
    Si707    Si       0.13885    0.18554    0.18086    1.000
    Si708    Si       0.14059    0.04357    0.26942    1.000
    N709     N        0.15102    0.04440    0.31227    1.000
    Si710    Si       0.11739    0.11409    0.27049    1.000
    N711     N        0.15726    0.10171    0.35713    1.000
    N712     N        0.15581    0.11489    0.25202    1.000
    N713     N        0.11056    0.11949    0.31179    1.000
    Si714    Si       0.13911    0.13634    0.33815    1.000
    Si715    Si       0.14987    0.20249    0.30794    1.000
    Si716    Si       0.13961    0.25213    0.36608    1.000
    N717     N        0.11410    0.15913    0.36621    1.000
    N718     N        0.12344    0.11177    0.47445    1.000
    Si719    Si       0.15250    0.09875    0.40012    1.000
    N720     N        0.12118    0.04903    0.45930    1.000
    Si721    Si       0.16350    0.04149    0.45010    1.000
    N722     N        0.11051    0.10268    0.41088    1.000
    N723     N        0.16508    0.05579    0.40926    1.000
    N724     N        0.10933    0.22415    0.37827    1.000
    N725     N        0.11675    0.18651    0.49326    1.000
    N726     N        0.14238    0.19050    0.42995    1.000
    Si727    Si       0.13202    0.21473    0.46498    1.000
    N728     N        0.14945    0.07345    0.60419    1.000
    Si729    Si       0.15463    0.03078    0.59891    1.000
    N730     N        0.13721    0.01901    0.56035    1.000
    Si731    Si       0.10665    0.08371    0.60863    1.000
    N732     N        0.12483    0.13705    0.53549    1.000
    N733     N        0.12587    0.24325    0.52288    1.000
    N734     N        0.14682    0.24425    0.60015    1.000
    Si735    Si       0.12469    0.20175    0.53333    1.000
    Si736    Si       0.11717    0.21254    0.60748    1.000
    Si737    Si       0.10691    0.14363    0.49657    1.000
    N738     N        0.11752    0.03552    0.70102    1.000
    Si739    Si       0.13991    0.12121    0.71681    1.000
    Si740    Si       0.15844    0.04634    0.71031    1.000
    N741     N        0.13844    0.01130    0.63680    1.000
    N742     N        0.15967    0.08656    0.69739    1.000
    Si743    Si       0.16224    0.16396    0.64935    1.000
    N744     N        0.15436    0.15413    0.69204    1.000
    N745     N        0.12194    0.18171    0.63764    1.000
    N746     N        0.14727    0.22659    0.70786    1.000
    Si747    Si       0.11376    0.21897    0.73947    1.000
    Si748    Si       0.16337    0.18835    0.71591    1.000
    N749     N        0.15988    0.01408    0.80793    1.000
    N750     N        0.15810    0.11545    0.75613    1.000
    N751     N        0.15442    0.05883    0.87041    1.000
    N752     N        0.13248    0.16469    0.81653    1.000
    N753     N        0.15108    0.23777    0.79254    1.000
    Si754    Si       0.12285    0.20686    0.80458    1.000
    Si755    Si       0.15833    0.17088    0.85508    1.000
    Si756    Si       0.15073    0.15069    0.78016    1.000
    N757     N        0.13797    0.18165    0.75216    1.000
    Si758    Si       0.14308    0.10042    0.87703    1.000
    N759     N        0.14143    0.05485    0.94097    1.000
    N760     N        0.14625    0.11868    0.91575    1.000
    Si761    Si       0.12529    0.09465    0.94457    1.000
    Si762    Si       0.14953    0.03188    0.90501    1.000
    Si763    Si       0.13230    0.02501    0.97213    1.000
    N764     N        0.12581    0.11390    0.98394    1.000
    N765     N        0.14061    0.17556    0.95150    1.000
    Si766    Si       0.12024    0.15480    0.92011    1.000
    Si767    Si       0.14854    0.15154    0.98834    1.000
    N768     N        0.12077    0.17172    0.88013    1.000
    Si769    Si       0.14892    0.30085    0.04090    1.000
    N770     N        0.11627    0.33081    0.03238    1.000
    Si771    Si       0.15488    0.26719    0.11104    1.000
    N772     N        0.14542    0.26405    0.06647    1.000
    N773     N        0.15817    0.36351    0.11445    1.000
    Si774    Si       0.14412    0.39989    0.09687    1.000
    Si775    Si       0.14398    0.42152    0.02693    1.000
    N776     N        0.14630    0.46722    0.02364    1.000
    N777     N        0.12228    0.39953    0.05828    1.000
    N778     N        0.13367    0.49056    0.08936    1.000
    Si779    Si       0.15976    0.49554    0.05634    1.000
    Si780    Si       0.13224    0.31282    0.23746    1.000
    N781     N        0.15247    0.27687    0.22178    1.000
    N782     N        0.14833    0.35528    0.23565    1.000
    Si783    Si       0.11907    0.33554    0.16741    1.000
    N784     N        0.16056    0.32385    0.16781    1.000
    N785     N        0.13678    0.26457    0.14949    1.000
    N786     N        0.10874    0.37784    0.17565    1.000
    Si787    Si       0.11470    0.38000    0.22104    1.000
    N788     N        0.12033    0.42386    0.22429    1.000
    N789     N        0.12532    0.42783    0.12547    1.000
    N790     N        0.14276    0.48829    0.16080    1.000
    Si791    Si       0.14541    0.46709    0.12288    1.000
    Si792    Si       0.15976    0.44029    0.23336    1.000
    Si793    Si       0.13735    0.30572    0.31248    1.000
    N794     N        0.12968    0.34728    0.31765    1.000
    Si795    Si       0.15424    0.36404    0.34837    1.000
    N796     N        0.12053    0.28778    0.34749    1.000
    N797     N        0.11466    0.29932    0.27411    1.000
    Si798    Si       0.13541    0.44535    0.34328    1.000
    N799     N        0.13188    0.40283    0.35645    1.000
    N800     N        0.15177    0.47795    0.25373    1.000
    Si801    Si       0.11359    0.49899    0.25119    1.000
    N802     N        0.12616    0.35085    0.46283    1.000
    Si803    Si       0.13929    0.32871    0.42725    1.000
    N804     N        0.14541    0.35082    0.39047    1.000
    Si805    Si       0.15297    0.34760    0.49699    1.000
    N806     N        0.15487    0.47173    0.44720    1.000
    Si807    Si       0.13094    0.39374    0.39843    1.000
    N808     N        0.16023    0.46138    0.37714    1.000
    N809     N        0.16019    0.40503    0.42540    1.000
    Si810    Si       0.16070    0.49310    0.40820    1.000
    Si811    Si       0.14555    0.50109    0.47709    1.000
    Si812    Si       0.13225    0.28643    0.59823    1.000
    N813     N        0.13105    0.36381    0.53180    1.000
    Si814    Si       0.16091    0.26285    0.50739    1.000
    N815     N        0.15670    0.30590    0.50424    1.000
    N816     N        0.10834    0.29528    0.56291    1.000
    Si817    Si       0.11171    0.44078    0.51071    1.000
    Si818    Si       0.15061    0.40107    0.53569    1.000
    N819     N        0.13068    0.48170    0.60639    1.000
    N820     N        0.12629    0.43100    0.55447    1.000
    N821     N        0.11430    0.48208    0.50080    1.000
    Si822    Si       0.11021    0.44418    0.59356    1.000
    N823     N        0.15190    0.42171    0.49763    1.000
    N824     N        0.15317    0.29635    0.69818    1.000
    N825     N        0.15457    0.36323    0.73550    1.000
    N826     N        0.13721    0.35085    0.65339    1.000
    Si827    Si       0.12358    0.31560    0.67320    1.000
    N828     N        0.11307    0.28976    0.63933    1.000
    N829     N        0.10537    0.26339    0.74526    1.000
    N830     N        0.12387    0.48305    0.67144    1.000
    Si831    Si       0.15516    0.48246    0.64149    1.000
    N832     N        0.15978    0.50894    0.72247    1.000
    Si833    Si       0.15882    0.40668    0.64578    1.000
    N834     N        0.13372    0.41325    0.68260    1.000
    N835     N        0.12110    0.41249    0.62181    1.000
    Si836    Si       0.10772    0.44648    0.68581    1.000
    Si837    Si       0.15991    0.39880    0.71254    1.000
    Si838    Si       0.14112    0.34911    0.77600    1.000
    Si839    Si       0.13060    0.27477    0.77911    1.000
    N840     N        0.15518    0.30931    0.76868    1.000
    N841     N        0.14157    0.27879    0.86234    1.000
    Si842    Si       0.10474    0.26542    0.84425    1.000
    N843     N        0.13561    0.47957    0.78649    1.000
    Si844    Si       0.14422    0.40858    0.81642    1.000
    N845     N        0.12427    0.41452    0.85582    1.000
    Si846    Si       0.12842    0.44604    0.75828    1.000
    N847     N        0.11416    0.41386    0.78433    1.000
    N848     N        0.13028    0.48965    0.86683    1.000
    Si849    Si       0.12781    0.30523    0.89479    1.000
    N850     N        0.11655    0.28526    0.93242    1.000
    N851     N        0.14881    0.29811    0.99150    1.000
    Si852    Si       0.15809    0.28373    0.95033    1.000
    Si853    Si       0.10907    0.31782    0.99129    1.000
    Si854    Si       0.13830    0.37845    0.95775    1.000
    Si855    Si       0.10801    0.38270    0.88275    1.000
    N856     N        0.16877    0.30709    0.90913    1.000
    N857     N        0.10525    0.34897    0.96256    1.000
    N858     N        0.14124    0.38641    0.91531    1.000
    N859     N        0.13049    0.41059    0.98646    1.000
    Si860    Si       0.13928    0.49874    0.98890    1.000
    N861     N        0.11412    0.47436    0.96316    1.000
    N862     N        0.12509    0.58456    0.02953    1.000
    Si863    Si       0.13373    0.61896    0.05404    1.000
    Si864    Si       0.15917    0.56559    0.01326    1.000
    Si865    Si       0.16336    0.62976    0.11809    1.000
    Si866    Si       0.13327    0.69628    0.05076    1.000
    N867     N        0.12901    0.65550    0.03273    1.000
    N868     N        0.14253    0.73253    0.07873    1.000
    N869     N        0.11658    0.71331    0.01278    1.000
    N870     N        0.13443    0.66242    0.11542    1.000
    N871     N        0.15264    0.58857    0.12843    1.000
    N872     N        0.12701    0.54923    0.17386    1.000
    Si873    Si       0.11440    0.57229    0.13601    1.000
    Si874    Si       0.16481    0.55717    0.19196    1.000
    Si875    Si       0.10826    0.51064    0.17362    1.000
    N876     N        0.12136    0.64731    0.19169    1.000
    N877     N        0.11682    0.72231    0.13977    1.000
    Si878    Si       0.15371    0.69246    0.14033    1.000
    N879     N        0.15998    0.70865    0.17972    1.000
    Si880    Si       0.12432    0.73515    0.17988    1.000
    Si881    Si       0.16313    0.63894    0.19388    1.000
    Si882    Si       0.14499    0.54173    0.34793    1.000
    Si883    Si       0.14437    0.61753    0.31319    1.000
    N884     N        0.11567    0.59348    0.28968    1.000
    N885     N        0.13214    0.53857    0.24959    1.000
    N886     N        0.15983    0.58136    0.33244    1.000
    Si887    Si       0.10506    0.57214    0.25288    1.000
    N888     N        0.10616    0.53651    0.32713    1.000
    N889     N        0.14492    0.63960    0.35233    1.000
    N890     N        0.15721    0.65095    0.28613    1.000
    N891     N        0.12796    0.70505    0.32503    1.000
    Si892    Si       0.13000    0.68584    0.28261    1.000
    N893     N        0.13587    0.72253    0.26324    1.000
    Si894    Si       0.15657    0.73152    0.34186    1.000
    N895     N        0.11921    0.59310    0.40861    1.000
    N896     N        0.13626    0.52445    0.38827    1.000
    Si897    Si       0.12130    0.54943    0.41925    1.000
    Si898    Si       0.11383    0.62517    0.37705    1.000
    N899     N        0.15012    0.53865    0.45120    1.000
    Si900    Si       0.13360    0.61502    0.44191    1.000
    N901     N        0.10865    0.60418    0.47584    1.000
    Si902    Si       0.13140    0.68705    0.47046    1.000
    N903     N        0.11973    0.65708    0.44218    1.000
    N904     N        0.16582    0.71005    0.45384    1.000
    Si905    Si       0.16396    0.75107    0.46168    1.000
    Si906    Si       0.12430    0.58311    0.51149    1.000
    Si907    Si       0.12758    0.52099    0.58551    1.000
    N908     N        0.12724    0.55629    0.61400    1.000
    N909     N        0.11846    0.61271    0.54331    1.000
    N910     N        0.16107    0.52730    0.56132    1.000
    N911     N        0.14156    0.73314    0.54113    1.000
    Si912    Si       0.13847    0.68895    0.54411    1.000
    N913     N        0.15034    0.67041    0.50638    1.000
    N914     N        0.15852    0.67215    0.57859    1.000
    Si915    Si       0.14289    0.67964    0.61746    1.000
    N916     N        0.14275    0.72252    0.62498    1.000
    Si917    Si       0.15958    0.55434    0.64323    1.000
    N918     N        0.12863    0.62641    0.69893    1.000
    N919     N        0.12834    0.55338    0.67636    1.000
    Si920    Si       0.14846    0.58905    0.69427    1.000
    Si921    Si       0.12326    0.51711    0.70186    1.000
    Si922    Si       0.13455    0.70571    0.73550    1.000
    Si923    Si       0.12813    0.63854    0.73880    1.000
    Si924    Si       0.11652    0.73097    0.65913    1.000
    N925     N        0.13584    0.71304    0.69232    1.000
    N926     N        0.11889    0.74407    0.74596    1.000
    N927     N        0.13842    0.59204    0.82075    1.000
    N928     N        0.14395    0.54507    0.77536    1.000
    Si929    Si       0.14283    0.59098    0.77819    1.000
    Si930    Si       0.11102    0.51524    0.77215    1.000
    N931     N        0.15681    0.54529    0.87250    1.000
    N932     N        0.10586    0.60502    0.75943    1.000
    N933     N        0.15664    0.63450    0.77477    1.000
    N934     N        0.11990    0.70277    0.84140    1.000
    Si935    Si       0.15918    0.71123    0.82879    1.000
    N936     N        0.16105    0.70793    0.78323    1.000
    Si937    Si       0.11675    0.53007    0.87719    1.000
    N938     N        0.12774    0.59093    0.91773    1.000
    N939     N        0.14200    0.54687    0.97803    1.000
    Si940    Si       0.11522    0.56074    0.94615    1.000
    Si941    Si       0.13853    0.73408    0.92828    1.000
    Si942    Si       0.13564    0.65726    0.94306    1.000
    N943     N        0.15693    0.69587    0.94156    1.000
    N944     N        0.11491    0.65985    0.90428    1.000
    Si945    Si       0.14016    0.77757    0.07901    1.000
    N946     N        0.15134    0.79549    0.04151    1.000
    Si947    Si       0.12741    0.81419    0.01243    1.000
    N948     N        0.15224    0.80620    0.11167    1.000
    N949     N        0.11570    0.85531    0.02060    1.000
    N950     N        0.13064    0.87541    0.11172    1.000
    Si951    Si       0.16641    0.84865    0.12082    1.000
    Si952    Si       0.13849    0.89155    0.02478    1.000
    Si953    Si       0.13013    0.91521    0.09472    1.000
    N954     N        0.14670    0.99092    0.09771    1.000
    N955     N        0.11632    0.91650    0.05342    1.000
    N956     N        0.10855    0.96502    0.00290    1.000
    Si957    Si       0.12697    0.79643    0.22086    1.000
    Si958    Si       0.13424    0.80675    0.15205    1.000
    N959     N        0.13146    0.77640    0.18240    1.000
    N960     N        0.11725    0.83898    0.21209    1.000
    Si961    Si       0.15083    0.86276    0.19780    1.000
    N962     N        0.16212    0.84173    0.16333    1.000
    Si963    Si       0.15347    0.98909    0.21554    1.000
    N964     N        0.12431    0.96344    0.19500    1.000
    Si965    Si       0.14259    0.93712    0.16328    1.000
    N966     N        0.11789    0.94035    0.12788    1.000
    Si967    Si       0.12558    0.92717    0.22489    1.000
    N968     N        0.14058    0.90320    0.18848    1.000
    N969     N        0.12312    0.86340    0.36499    1.000
    N970     N        0.16267    0.78997    0.24699    1.000
    N971     N        0.12439    0.89016    0.25430    1.000
    Si972    Si       0.12725    0.89959    0.34301    1.000
    Si973    Si       0.13637    0.96652    0.27899    1.000
    N974     N        0.15782    0.90295    0.31255    1.000
    N975     N        0.13143    0.00420    0.25234    1.000
    Si976    Si       0.14680    0.00412    0.32995    1.000
    N977     N        0.11226    0.98133    0.31296    1.000
    N978     N        0.15936    0.94825    0.24446    1.000
    N979     N        0.14338    0.93133    0.36744    1.000
    Si980    Si       0.11230    0.77884    0.39202    1.000
    Si981    Si       0.12580    0.81068    0.45693    1.000
    N982     N        0.12597    0.76861    0.46385    1.000
    Si983    Si       0.15091    0.84453    0.39278    1.000
    N984     N        0.12849    0.81447    0.41382    1.000
    N985     N        0.16261    0.82729    0.47141    1.000
    N986     N        0.14579    0.75987    0.37317    1.000
    Si987    Si       0.16541    0.87060    0.46270    1.000
    N988     N        0.13011    0.99217    0.49163    1.000
    N989     N        0.13407    0.88406    0.48914    1.000
    N990     N        0.15015    0.99953    0.37161    1.000
    Si991    Si       0.12882    0.96373    0.39108    1.000
    Si992    Si       0.15079    0.96900    0.45958    1.000
    N993     N        0.12178    0.95159    0.43221    1.000
    N994     N        0.16939    0.94031    0.48436    1.000
    N995     N        0.12607    0.78329    0.59360    1.000
    N996     N        0.12877    0.80067    0.53021    1.000
    Si997    Si       0.11755    0.76770    0.55548    1.000
    N998     N        0.14340    0.87686    0.57623    1.000
    Si999    Si       0.16085    0.75941    0.60652    1.000
    Si1000   Si       0.16665    0.81115    0.51250    1.000
    Si1001   Si       0.13501    0.90652    0.60710    1.000
    N1002    N        0.13487    0.95038    0.54376    1.000
    Si1003   Si       0.14870    0.99010    0.52999    1.000
    Si1004   Si       0.12987    0.92552    0.50520    1.000
    N1005    N        0.11567    0.81353    0.73781    1.000
    Si1006   Si       0.11738    0.85999    0.66370    1.000
    Si1007   Si       0.13610    0.84493    0.71734    1.000
    N1008    N        0.11641    0.77474    0.65985    1.000
    N1009    N        0.14848    0.83399    0.67796    1.000
    Si1010   Si       0.15643    0.79051    0.67094    1.000
    Si1011   Si       0.14144    0.77987    0.74307    1.000
    N1012    N        0.12765    0.96562    0.69359    1.000
    Si1013   Si       0.15807    0.98616    0.66821    1.000
    N1014    N        0.13703    0.89388    0.64874    1.000
    Si1015   Si       0.14154    0.94577    0.73198    1.000
    N1016    N        0.16184    0.91118    0.71578    1.000
    N1017    N        0.13217    0.78402    0.84314    1.000
    N1018    N        0.12849    0.86785    0.83975    1.000
    N1019    N        0.16692    0.78432    0.77942    1.000
    N1020    N        0.12432    0.95495    0.81477    1.000
    Si1021   Si       0.12068    0.99511    0.80002    1.000
    Si1022   Si       0.16481    0.94355    0.80123    1.000
    N1023    N        0.16484    0.96526    0.76271    1.000
    N1024    N        0.15415    0.82130    0.97389    1.000
    Si1025   Si       0.12824    0.77721    0.88655    1.000
    Si1026   Si       0.13403    0.83893    0.94087    1.000
    N1027    N        0.14488    0.87557    0.91906    1.000
    N1028    N        0.11758    0.81280    0.90944    1.000
    N1029    N        0.13940    0.75663    0.96455    1.000
    N1030    N        0.16444    0.75462    0.90026    1.000
    N1031    N        0.15997    0.94591    0.92828    1.000
    Si1032   Si       0.12253    0.95701    0.90789    1.000
    Si1033   Si       0.14406    0.88783    0.87842    1.000
    N1034    N        0.15999    0.99336    0.97050    1.000
    N1035    N        0.14682    0.91018    0.98573    1.000
    N1036    N        0.12387    0.92550    0.87712    1.000
    Si1037   Si       0.15874    0.90491    0.94488    1.000
    N1038    N        0.12219    0.00008    0.89456    1.000
    Si1039   Si       0.14978    0.95431    0.99335    1.000
    Si1040   Si       0.19891    0.11887    0.02314    1.000
    Si1041   Si       0.17973    0.04887    0.02625    1.000
    N1042    N        0.20976    0.07757    0.01542    1.000
    Si1043   Si       0.17419    0.02441    0.09940    1.000
    N1044    N        0.20658    0.01512    0.02072    1.000
    N1045    N        0.17239    0.05419    0.06685    1.000
    Si1046   Si       0.17939    0.23346    0.06885    1.000
    N1047    N        0.17897    0.19122    0.05861    1.000
    N1048    N        0.18387    0.23303    0.11408    1.000
    Si1049   Si       0.21884    0.17514    0.06361    1.000
    N1050    N        0.21509    0.25612    0.06038    1.000
    Si1051   Si       0.18320    0.08877    0.14279    1.000
    Si1052   Si       0.18094    0.05461    0.20380    1.000
    N1053    N        0.17616    0.09372    0.18598    1.000
    N1054    N        0.22362    0.04568    0.19661    1.000
    N1055    N        0.16685    0.04847    0.13485    1.000
    N1056    N        0.22256    0.10244    0.23739    1.000
    Si1057   Si       0.16882    0.12808    0.21355    1.000
    Si1058   Si       0.19182    0.19255    0.12813    1.000
    Si1059   Si       0.20632    0.19790    0.20061    1.000
    N1060    N        0.22072    0.20615    0.15939    1.000
    N1061    N        0.20346    0.15627    0.20761    1.000
    Si1062   Si       0.21437    0.24676    0.14619    1.000
    N1063    N        0.16490    0.21205    0.20374    1.000
    N1064    N        0.19534    0.10147    0.30391    1.000
    N1065    N        0.20217    0.04700    0.35166    1.000
    Si1066   Si       0.19055    0.09001    0.26393    1.000
    Si1067   Si       0.17778    0.07309    0.33149    1.000
    N1068    N        0.17594    0.05273    0.24692    1.000
    Si1069   Si       0.20385    0.14357    0.30833    1.000
    Si1070   Si       0.18826    0.25114    0.30292    1.000
    N1071    N        0.16924    0.22919    0.33830    1.000
    N1072    N        0.16541    0.16200    0.31501    1.000
    N1073    N        0.16176    0.22880    0.27503    1.000
    N1074    N        0.18622    0.06744    0.47634    1.000
    Si1075   Si       0.18392    0.02428    0.38372    1.000
    N1076    N        0.17334    0.12278    0.42987    1.000
    Si1077   Si       0.16676    0.10758    0.47333    1.000
    Si1078   Si       0.22767    0.05300    0.48649    1.000
    Si1079   Si       0.17559    0.16585    0.42325    1.000
    N1080    N        0.18756    0.17780    0.38174    1.000
    N1081    N        0.20902    0.17994    0.44696    1.000
    Si1082   Si       0.22446    0.21641    0.46428    1.000
    Si1083   Si       0.19441    0.22093    0.37448    1.000
    N1084    N        0.17180    0.25109    0.39652    1.000
    N1085    N        0.16374    0.24476    0.46783    1.000
    N1086    N        0.19871    0.02288    0.59321    1.000
    Si1087   Si       0.18129    0.10415    0.59984    1.000
    N1088    N        0.18947    0.12683    0.50461    1.000
    N1089    N        0.22147    0.08930    0.59184    1.000
    Si1090   Si       0.22566    0.05258    0.61293    1.000
    Si1091   Si       0.16633    0.14521    0.53554    1.000
    N1092    N        0.18228    0.13854    0.57477    1.000
    Si1093   Si       0.20161    0.21645    0.54064    1.000
    Si1094   Si       0.21035    0.16787    0.59123    1.000
    Si1095   Si       0.18554    0.23480    0.61850    1.000
    N1096    N        0.16827    0.18982    0.53679    1.000
    N1097    N        0.22567    0.20496    0.57250    1.000
    N1098    N        0.17904    0.12470    0.63986    1.000
    N1099    N        0.18239    0.01512    0.69100    1.000
    N1100    N        0.21029    0.06402    0.65316    1.000
    Si1101   Si       0.19226    0.10016    0.67219    1.000
    Si1102   Si       0.22086    0.03094    0.68085    1.000
    N1103    N        0.20626    0.19314    0.71717    1.000
    Si1104   Si       0.17354    0.25864    0.69468    1.000
    N1105    N        0.19162    0.25458    0.65658    1.000
    N1106    N        0.18668    0.18970    0.62384    1.000
    N1107    N        0.20719    0.25988    0.72338    1.000
    Si1108   Si       0.19620    0.11927    0.82494    1.000
    Si1109   Si       0.18736    0.08120    0.76642    1.000
    N1110    N        0.18277    0.08134    0.81010    1.000
    N1111    N        0.21198    0.02474    0.85142    1.000
    Si1112   Si       0.17542    0.04593    0.83520    1.000
    N1113    N        0.17415    0.04397    0.75062    1.000
    N1114    N        0.17323    0.12983    0.86132    1.000
    N1115    N        0.18345    0.20272    0.83933    1.000
    N1116    N        0.19255    0.15141    0.79537    1.000
    Si1117   Si       0.19055    0.23498    0.80907    1.000
    N1118    N        0.21674    0.21558    0.78108    1.000
    N1119    N        0.18857    0.01275    0.91226    1.000
    Si1120   Si       0.18721    0.13852    0.90380    1.000
    N1121    N        0.17987    0.18079    0.89899    1.000
    N1122    N        0.22270    0.13495    0.92536    1.000
    Si1123   Si       0.20868    0.20355    0.87537    1.000
    Si1124   Si       0.21403    0.24476    0.95925    1.000
    N1125    N        0.17208    0.24293    0.95189    1.000
    N1126    N        0.21502    0.19728    0.95770    1.000
    N1127    N        0.20579    0.24225    0.89068    1.000
    N1128    N        0.19018    0.14268    0.98590    1.000
    Si1129   Si       0.17351    0.20121    0.93924    1.000
    Si1130   Si       0.22644    0.15704    0.96293    1.000
    N1131    N        0.18625    0.32141    0.03590    1.000
    N1132    N        0.18602    0.29832    0.10949    1.000
    N1133    N        0.18785    0.41796    0.01788    1.000
    N1134    N        0.20044    0.48139    0.05369    1.000
    Si1135   Si       0.19370    0.46463    0.01100    1.000
    Si1136   Si       0.21289    0.40993    0.05614    1.000
    N1137    N        0.18159    0.41778    0.08516    1.000
    Si1138   Si       0.21227    0.43865    0.10859    1.000
    Si1139   Si       0.18283    0.33352    0.13343    1.000
    N1140    N        0.20621    0.26987    0.18164    1.000
    Si1141   Si       0.18751    0.37428    0.23663    1.000
    N1142    N        0.20713    0.38171    0.19833    1.000
    Si1143   Si       0.16333    0.28296    0.18215    1.000
    Si1144   Si       0.21328    0.42224    0.18431    1.000
    Si1145   Si       0.18255    0.48748    0.17722    1.000
    Si1146   Si       0.22332    0.50294    0.12662    1.000
    N1147    N        0.19103    0.47248    0.12290    1.000
    N1148    N        0.22353    0.41787    0.14294    1.000
    N1149    N        0.18134    0.44744    0.19569    1.000
    Si1150   Si       0.20310    0.32863    0.30283    1.000
    N1151    N        0.19255    0.35621    0.33437    1.000
    N1152    N        0.17773    0.29360    0.30712    1.000
    N1153    N        0.21257    0.35153    0.26540    1.000
    Si1154   Si       0.22542    0.38144    0.34810    1.000
    Si1155   Si       0.21190    0.50660    0.36747    1.000
    N1156    N        0.17375    0.44005    0.31877    1.000
    Si1157   Si       0.20383    0.42809    0.28947    1.000
    Si1158   Si       0.19345    0.44189    0.36020    1.000
    N1159    N        0.18650    0.41338    0.25421    1.000
    N1160    N        0.17841    0.30973    0.43863    1.000
    Si1161   Si       0.18175    0.26638    0.43613    1.000
    Si1162   Si       0.20759    0.33593    0.45672    1.000
    N1163    N        0.19077    0.36250    0.48453    1.000
    Si1164   Si       0.16806    0.43291    0.45821    1.000
    N1165    N        0.20590    0.40532    0.37823    1.000
    Si1166   Si       0.20311    0.39759    0.42111    1.000
    N1167    N        0.21151    0.41995    0.45832    1.000
    Si1168   Si       0.20234    0.29021    0.56814    1.000
    N1169    N        0.21661    0.26382    0.59981    1.000
    N1170    N        0.16780    0.30985    0.59138    1.000
    N1171    N        0.19232    0.25848    0.53720    1.000
    N1172    N        0.17723    0.38311    0.61411    1.000
    Si1173   Si       0.21228    0.39839    0.50298    1.000
    N1174    N        0.19231    0.38974    0.54467    1.000
    Si1175   Si       0.20747    0.39177    0.58360    1.000
    N1176    N        0.18188    0.50389    0.50456    1.000
    N1177    N        0.22194    0.43313    0.58724    1.000
    N1178    N        0.22024    0.43969    0.51682    1.000
    Si1179   Si       0.16970    0.34092    0.62312    1.000
    Si1180   Si       0.21575    0.35197    0.67886    1.000
    N1181    N        0.20133    0.32454    0.64725    1.000
    N1182    N        0.21369    0.32876    0.71587    1.000
    Si1183   Si       0.17176    0.32372    0.72931    1.000
    Si1184   Si       0.21868    0.28559    0.64026    1.000
    N1185    N        0.17997    0.44663    0.64338    1.000
    N1186    N        0.19494    0.39099    0.68690    1.000
    Si1187   Si       0.18686    0.47446    0.72965    1.000
    N1188    N        0.16670    0.43600    0.73732    1.000
    N1189    N        0.22198    0.46496    0.70011    1.000
    N1190    N        0.20231    0.26945    0.83046    1.000
    Si1191   Si       0.20974    0.37188    0.80709    1.000
    N1192    N        0.22131    0.33622    0.82671    1.000
    Si1193   Si       0.18724    0.27934    0.87196    1.000
    N1194    N        0.16561    0.37151    0.80500    1.000
    N1195    N        0.20307    0.48421    0.76826    1.000
    Si1196   Si       0.21155    0.43498    0.84426    1.000
    N1197    N        0.17830    0.43722    0.81644    1.000
    N1198    N        0.19650    0.49810    0.83824    1.000
    Si1199   Si       0.17620    0.47948    0.80279    1.000
    N1200    N        0.22342    0.39411    0.84131    1.000
    N1201    N        0.20340    0.29710    0.95784    1.000
    N1202    N        0.20592    0.36394    0.89981    1.000
    N1203    N        0.17629    0.36212    0.97197    1.000
    Si1204   Si       0.20937    0.32570    0.92146    1.000
    Si1205   Si       0.18721    0.32487    0.99180    1.000
    N1206    N        0.22783    0.30048    0.88563    1.000
    Si1207   Si       0.20942    0.45681    0.92591    1.000
    N1208    N        0.18246    0.49576    0.97970    1.000
    Si1209   Si       0.18295    0.39996    0.90693    1.000
    N1210    N        0.18857    0.49410    0.91351    1.000
    Si1211   Si       0.19892    0.39793    0.98164    1.000
    N1212    N        0.19157    0.42131    0.94545    1.000
    Si1213   Si       0.17276    0.50500    0.87423    1.000
    N1214    N        0.20143    0.43468    0.88756    1.000
    Si1215   Si       0.20540    0.61500    0.04755    1.000
    N1216    N        0.18435    0.60203    0.01037    1.000
    N1217    N        0.20650    0.53668    0.10311    1.000
    Si1218   Si       0.21167    0.54004    0.06058    1.000
    N1219    N        0.17158    0.53742    0.04396    1.000
    N1220    N        0.17163    0.62516    0.07433    1.000
    Si1221   Si       0.21310    0.68123    0.02635    1.000
    N1222    N        0.18057    0.69477    0.04765    1.000
    Si1223   Si       0.18401    0.72256    0.08039    1.000
    N1224    N        0.19173    0.70368    0.11813    1.000
    N1225    N        0.20719    0.75765    0.07238    1.000
    N1226    N        0.22449    0.60141    0.12234    1.000
    Si1227   Si       0.22686    0.52892    0.19743    1.000
    Si1228   Si       0.19266    0.57065    0.12897    1.000
    N1229    N        0.20248    0.55380    0.16656    1.000
    Si1230   Si       0.21629    0.60003    0.21825    1.000
    N1231    N        0.18210    0.51879    0.20993    1.000
    N1232    N        0.17386    0.59759    0.20900    1.000
    N1233    N        0.19862    0.73140    0.23959    1.000
    N1234    N        0.18449    0.66577    0.22194    1.000
    Si1235   Si       0.19476    0.70542    0.20551    1.000
    N1236    N        0.18295    0.64361    0.15440    1.000
    Si1237   Si       0.22529    0.63425    0.15019    1.000
    Si1238   Si       0.19864    0.60129    0.34406    1.000
    N1239    N        0.18226    0.52101    0.33828    1.000
    N1240    N        0.21061    0.52224    0.27650    1.000
    Si1241   Si       0.21362    0.54136    0.31440    1.000
    Si1242   Si       0.17369    0.51798    0.25265    1.000
    N1243    N        0.21967    0.61838    0.25806    1.000
    N1244    N        0.18022    0.70219    0.36220    1.000
    Si1245   Si       0.19329    0.65286    0.26268    1.000
    N1246    N        0.20916    0.64250    0.34191    1.000
    Si1247   Si       0.17951    0.66022    0.36804    1.000
    Si1248   Si       0.16890    0.75039    0.26494    1.000
    N1249    N        0.17585    0.75195    0.30890    1.000
    N1250    N        0.21944    0.68103    0.28293    1.000
    Si1251   Si       0.17877    0.56732    0.46847    1.000
    N1252    N        0.21795    0.55210    0.46876    1.000
    N1253    N        0.21436    0.58682    0.38265    1.000
    N1254    N        0.17598    0.60115    0.44330    1.000
    Si1255   Si       0.20858    0.61585    0.41689    1.000
    N1256    N        0.20087    0.50868    0.40834    1.000
    Si1257   Si       0.19771    0.68495    0.43785    1.000
    N1258    N        0.19194    0.65341    0.40750    1.000
    N1259    N        0.21456    0.66339    0.47123    1.000
    Si1260   Si       0.21968    0.71689    0.37221    1.000
    Si1261   Si       0.18726    0.54050    0.52996    1.000
    N1262    N        0.20863    0.62315    0.61033    1.000
    N1263    N        0.16561    0.57067    0.50782    1.000
    N1264    N        0.20470    0.64170    0.54226    1.000
    Si1265   Si       0.20017    0.65715    0.58171    1.000
    N1266    N        0.20131    0.70632    0.52439    1.000
    Si1267   Si       0.19221    0.66640    0.50901    1.000
    Si1268   Si       0.18152    0.74572    0.53417    1.000
    N1269    N        0.17145    0.58114    0.72954    1.000
    N1270    N        0.18339    0.51831    0.63927    1.000
    N1271    N        0.17628    0.59187    0.66013    1.000
    Si1272   Si       0.19517    0.63110    0.65183    1.000
    Si1273   Si       0.21856    0.58288    0.73507    1.000
    Si1274   Si       0.17556    0.54026    0.74628    1.000
    N1275    N        0.21930    0.54118    0.74358    1.000
    N1276    N        0.16754    0.67377    0.72808    1.000
    N1277    N        0.20110    0.71673    0.68253    1.000
    Si1278   Si       0.16990    0.68637    0.68623    1.000
    Si1279   Si       0.20468    0.75230    0.71037    1.000
    N1280    N        0.16731    0.66419    0.64900    1.000
    N1281    N        0.20690    0.57477    0.83112    1.000
    Si1282   Si       0.16829    0.57817    0.84835    1.000
    N1283    N        0.22079    0.66584    0.78332    1.000
    Si1284   Si       0.18342    0.74455    0.78458    1.000
    Si1285   Si       0.17966    0.66965    0.77010    1.000
    N1286    N        0.18573    0.67847    0.84277    1.000
    N1287    N        0.18769    0.74646    0.82676    1.000
    N1288    N        0.21306    0.74731    0.75251    1.000
    Si1289   Si       0.22627    0.67310    0.82592    1.000
    Si1290   Si       0.20037    0.62328    0.97523    1.000
    Si1291   Si       0.19428    0.52233    0.94691    1.000
    N1292    N        0.19267    0.56288    0.92996    1.000
    N1293    N        0.18601    0.60945    0.87845    1.000
    Si1294   Si       0.17064    0.59760    0.91690    1.000
    N1295    N        0.17337    0.63122    0.94334    1.000
    Si1296   Si       0.19733    0.68522    0.94834    1.000
    N1297    N        0.21589    0.67185    0.90837    1.000
    N1298    N        0.20865    0.66585    0.98515    1.000
    Si1299   Si       0.19881    0.65031    0.87566    1.000
    Si1300   Si       0.19463    0.78166    0.03807    1.000
    N1301    N        0.20198    0.85937    0.09907    1.000
    N1302    N        0.19692    0.76289    0.99838    1.000
    N1303    N        0.17943    0.88349    0.03507    1.000
    N1304    N        0.17314    0.92453    0.08871    1.000
    N1305    N        0.19069    0.94754    0.01092    1.000
    Si1306   Si       0.18348    0.96333    0.10623    1.000
    Si1307   Si       0.19889    0.89443    0.07282    1.000
    N1308    N        0.20972    0.99539    0.09514    1.000
    Si1309   Si       0.21969    0.97765    0.00340    1.000
    Si1310   Si       0.19546    0.90547    0.00052    1.000
    N1311    N        0.18482    0.86175    0.22631    1.000
    Si1312   Si       0.20348    0.95016    0.24195    1.000
    N1313    N        0.21938    0.92508    0.20812    1.000
    N1314    N        0.18253    0.95044    0.14971    1.000
    N1315    N        0.19716    0.98425    0.20969    1.000
    Si1316   Si       0.21883    0.94305    0.16876    1.000
    Si1317   Si       0.19172    0.83918    0.32865    1.000
    Si1318   Si       0.21346    0.76786    0.32181    1.000
    N1319    N        0.17798    0.84511    0.28790    1.000
    Si1320   Si       0.19106    0.82440    0.24996    1.000
    N1321    N        0.21221    0.75910    0.36553    1.000
    N1322    N        0.17747    0.82277    0.36592    1.000
    N1323    N        0.22462    0.80912    0.32141    1.000
    N1324    N        0.17044    0.96949    0.31180    1.000
    Si1325   Si       0.17633    0.93334    0.33708    1.000
    N1326    N        0.20242    0.90938    0.26729    1.000
    N1327    N        0.21198    0.93185    0.35917    1.000
    Si1328   Si       0.16499    0.88669    0.27271    1.000
    Si1329   Si       0.18085    0.78186    0.38648    1.000
    Si1330   Si       0.20932    0.79766    0.45847    1.000
    N1331    N        0.18399    0.77426    0.42917    1.000
    Si1332   Si       0.21775    0.86674    0.43106    1.000
    N1333    N        0.17469    0.86821    0.42012    1.000
    N1334    N        0.21006    0.88271    0.47364    1.000
    N1335    N        0.22849    0.82583    0.42950    1.000
    N1336    N        0.22796    0.94960    0.44690    1.000
    N1337    N        0.17574    0.00091    0.44727    1.000
    Si1338   Si       0.21197    0.92685    0.48336    1.000
    N1339    N        0.21342    0.99772    0.39584    1.000
    Si1340   Si       0.21679    0.99174    0.43875    1.000
    N1341    N        0.18822    0.84372    0.53194    1.000
    Si1342   Si       0.18429    0.87317    0.56261    1.000
    N1343    N        0.21156    0.87089    0.59553    1.000
    Si1344   Si       0.21952    0.85711    0.50703    1.000
    N1345    N        0.19024    0.76496    0.57193    1.000
    N1346    N        0.18273    0.77231    0.49734    1.000
    Si1347   Si       0.17589    0.93779    0.55583    1.000
    N1348    N        0.17434    0.92619    0.59867    1.000
    N1349    N        0.18958    0.97558    0.54244    1.000
    N1350    N        0.20272    0.90749    0.54046    1.000
    Si1351   Si       0.20604    0.90613    0.61909    1.000
    Si1352   Si       0.21697    0.00636    0.55633    1.000
    N1353    N        0.18419    0.77869    0.64082    1.000
    N1354    N        0.17058    0.77888    0.71019    1.000
    N1355    N        0.17108    0.84952    0.74335    1.000
    Si1356   Si       0.16851    0.91385    0.67455    1.000
    N1357    N        0.20601    0.89411    0.66338    1.000
    N1358    N        0.18390    0.95318    0.66232    1.000
    N1359    N        0.22599    0.89189    0.73498    1.000
    Si1360   Si       0.18758    0.82179    0.77034    1.000
    N1361    N        0.18332    0.83563    0.81037    1.000
    N1362    N        0.19450    0.80066    0.86484    1.000
    Si1363   Si       0.16704    0.87446    0.82100    1.000
    Si1364   Si       0.17158    0.79306    0.82790    1.000
    N1365    N        0.18249    0.89287    0.85808    1.000
    N1366    N        0.19428    0.95367    0.83092    1.000
    Si1367   Si       0.21158    0.92378    0.85816    1.000
    Si1368   Si       0.21898    0.99176    0.82568    1.000
    N1369    N        0.17384    0.90254    0.78873    1.000
    N1370    N        0.22143    0.00112    0.78554    1.000
    Si1371   Si       0.18107    0.00686    0.76976    1.000
    Si1372   Si       0.18387    0.89033    0.74649    1.000
    Si1373   Si       0.17335    0.78328    0.96788    1.000
    N1374    N        0.20530    0.79186    0.93877    1.000
    Si1375   Si       0.20223    0.77455    0.89821    1.000
    N1376    N        0.22122    0.94525    0.89624    1.000
    N1377    N        0.20096    0.89604    0.95654    1.000
    Si1378   Si       0.18610    0.97902    0.93850    1.000
    N1379    N        0.22574    0.96781    0.95706    1.000
    N1380    N        0.26009    0.03031    0.05261    1.000
    Si1381   Si       0.24147    0.04540    0.01586    1.000
    N1382    N        0.28294    0.07526    0.01033    1.000
    Si1383   Si       0.25123    0.00621    0.08928    1.000
    N1384    N        0.23176    0.13921    0.04196    1.000
    Si1385   Si       0.26614    0.16226    0.02705    1.000
    Si1386   Si       0.24698    0.24160    0.03502    1.000
    N1387    N        0.24778    0.19925    0.04011    1.000
    N1388    N        0.22476    0.17686    0.10506    1.000
    N1389    N        0.27583    0.02727    0.12171    1.000
    Si1390   Si       0.26101    0.10512    0.14962    1.000
    Si1391   Si       0.24888    0.07300    0.22198    1.000
    N1392    N        0.27442    0.08650    0.18923    1.000
    N1393    N        0.22479    0.09225    0.13430    1.000
    Si1394   Si       0.25430    0.18640    0.13543    1.000
    N1395    N        0.26435    0.14752    0.15586    1.000
    Si1396   Si       0.28014    0.22101    0.22751    1.000
    Si1397   Si       0.23165    0.14484    0.23958    1.000
    N1398    N        0.23700    0.21467    0.22877    1.000
    N1399    N        0.27387    0.14387    0.22937    1.000
    Si1400   Si       0.24407    0.03446    0.35116    1.000
    N1401    N        0.26032    0.05141    0.25789    1.000
    N1402    N        0.27121    0.05675    0.32635    1.000
    Si1403   Si       0.25685    0.01037    0.25826    1.000
    Si1404   Si       0.24081    0.20568    0.27238    1.000
    N1405    N        0.23829    0.15204    0.33748    1.000
    N1406    N        0.22920    0.24064    0.29477    1.000
    N1407    N        0.22195    0.16688    0.27594    1.000
    N1408    N        0.28247    0.08654    0.43713    1.000
    N1409    N        0.26594    0.04373    0.38868    1.000
    N1410    N        0.24059    0.02748    0.45349    1.000
    Si1411   Si       0.27696    0.04397    0.43057    1.000
    Si1412   Si       0.28253    0.11326    0.47397    1.000
    Si1413   Si       0.28383    0.11944    0.40730    1.000
    Si1414   Si       0.23080    0.16993    0.37696    1.000
    Si1415   Si       0.27443    0.21852    0.40744    1.000
    N1416    N        0.25443    0.14725    0.48547    1.000
    N1417    N        0.23778    0.21477    0.38244    1.000
    N1418    N        0.24588    0.14429    0.40689    1.000
    N1419    N        0.26498    0.20556    0.44788    1.000
    Si1420   Si       0.25091    0.16489    0.44573    1.000
    N1421    N        0.22308    0.25636    0.44628    1.000
    Si1422   Si       0.25212    0.12113    0.58406    1.000
    N1423    N        0.26576    0.03697    0.61332    1.000
    N1424    N        0.23296    0.02665    0.52099    1.000
    Si1425   Si       0.23205    0.12223    0.51266    1.000
    Si1426   Si       0.27086    0.01076    0.53108    1.000
    N1427    N        0.24989    0.08745    0.49632    1.000
    N1428    N        0.24499    0.14494    0.54845    1.000
    Si1429   Si       0.25697    0.17878    0.51894    1.000
    Si1430   Si       0.25063    0.23809    0.58835    1.000
    N1431    N        0.24536    0.15377    0.61565    1.000
    N1432    N        0.27856    0.25741    0.56146    1.000
    N1433    N        0.22542    0.20812    0.50580    1.000
    N1434    N        0.22309    0.11617    0.69726    1.000
    Si1435   Si       0.24815    0.09008    0.72275    1.000
    N1436    N        0.25171    0.04812    0.70737    1.000
    Si1437   Si       0.27830    0.00760    0.64245    1.000
    Si1438   Si       0.23192    0.15862    0.70460    1.000
    N1439    N        0.25981    0.17823    0.67938    1.000
    N1440    N        0.26721    0.22264    0.73333    1.000
    Si1441   Si       0.22491    0.22466    0.73989    1.000
    N1442    N        0.26877    0.22062    0.62299    1.000
    Si1443   Si       0.27218    0.17953    0.63845    1.000
    Si1444   Si       0.25677    0.09990    0.79318    1.000
    N1445    N        0.23934    0.11669    0.83067    1.000
    N1446    N        0.26693    0.06489    0.81546    1.000
    Si1447   Si       0.26465    0.08108    0.85783    1.000
    N1448    N        0.23112    0.08887    0.76131    1.000
    Si1449   Si       0.26235    0.15039    0.85046    1.000
    N1450    N        0.26323    0.17469    0.81163    1.000
    Si1451   Si       0.23134    0.17327    0.78455    1.000
    N1452    N        0.24916    0.15668    0.74805    1.000
    N1453    N        0.27127    0.09967    0.95362    1.000
    Si1454   Si       0.25433    0.10736    0.91410    1.000
    N1455    N        0.25498    0.03161    0.97373    1.000
    N1456    N        0.23665    0.07310    0.89402    1.000
    N1457    N        0.27978    0.11610    0.87839    1.000
    Si1458   Si       0.22354    0.03142    0.89243    1.000
    N1459    N        0.25856    0.00804    0.90504    1.000
    N1460    N        0.26626    0.15671    0.98351    1.000
    N1461    N        0.27418    0.23811    0.87542    1.000
    N1462    N        0.24281    0.17929    0.87357    1.000
    Si1463   Si       0.28129    0.19686    0.88638    1.000
    N1464    N        0.24972    0.31440    0.07540    1.000
    Si1465   Si       0.25070    0.35458    0.09790    1.000
    N1466    N        0.23852    0.33016    0.00348    1.000
    Si1467   Si       0.22754    0.33296    0.04316    1.000
    N1468    N        0.22778    0.37029    0.06439    1.000
    Si1469   Si       0.22463    0.28288    0.09198    1.000
    N1470    N        0.23492    0.25711    0.99649    1.000
    Si1471   Si       0.24522    0.47862    0.05015    1.000
    N1472    N        0.24385    0.43417    0.07684    1.000
    N1473    N        0.26130    0.49133    0.10730    1.000
    Si1474   Si       0.27927    0.45265    0.09279    1.000
    N1475    N        0.23863    0.45613    0.01109    1.000
    N1476    N        0.24680    0.26233    0.12376    1.000
    Si1477   Si       0.23732    0.28402    0.21110    1.000
    N1478    N        0.24465    0.32599    0.20081    1.000
    Si1479   Si       0.23688    0.35913    0.17225    1.000
    N1480    N        0.27460    0.26346    0.21700    1.000
    N1481    N        0.26966    0.37579    0.23893    1.000
    Si1482   Si       0.24906    0.33584    0.24382    1.000
    N1483    N        0.27552    0.38121    0.16869    1.000
    N1484    N        0.22669    0.34423    0.13329    1.000
    N1485    N        0.25082    0.43592    0.20436    1.000
    Si1486   Si       0.25922    0.47619    0.19350    1.000
    Si1487   Si       0.27921    0.40353    0.20617    1.000
    N1488    N        0.25033    0.50225    0.22509    1.000
    N1489    N        0.22681    0.49328    0.16917    1.000
    N1490    N        0.24264    0.31234    0.31332    1.000
    Si1491   Si       0.25233    0.27928    0.28852    1.000
    Si1492   Si       0.27500    0.33274    0.33431    1.000
    N1493    N        0.25802    0.35748    0.36499    1.000
    N1494    N        0.23046    0.29304    0.25343    1.000
    Si1495   Si       0.26515    0.43200    0.30214    1.000
    Si1496   Si       0.24479    0.49746    0.26797    1.000
    N1497    N        0.23810    0.45673    0.28054    1.000
    N1498    N        0.23288    0.40413    0.31153    1.000
    N1499    N        0.23022    0.46601    0.35876    1.000
    N1500    N        0.28175    0.50405    0.29446    1.000
    Si1501   Si       0.25317    0.28597    0.45157    1.000
    N1502    N        0.26893    0.30849    0.41751    1.000
    N1503    N        0.23821    0.31430    0.48095    1.000
    Si1504   Si       0.26594    0.35112    0.40670    1.000
    N1505    N        0.22773    0.36169    0.42698    1.000
    N1506    N        0.26173    0.43929    0.41350    1.000
    N1507    N        0.28082    0.42340    0.47028    1.000
    N1508    N        0.23737    0.48550    0.46464    1.000
    Si1509   Si       0.26779    0.45143    0.37304    1.000
    Si1510   Si       0.24600    0.44455    0.45443    1.000
    N1511    N        0.24034    0.36854    0.59638    1.000
    Si1512   Si       0.25210    0.33366    0.51636    1.000
    Si1513   Si       0.27508    0.30155    0.56435    1.000
    N1514    N        0.23345    0.31403    0.55220    1.000
    N1515    N        0.25021    0.37706    0.51057    1.000
    N1516    N        0.24644    0.48942    0.54507    1.000
    Si1517   Si       0.24672    0.44616    0.55318    1.000
    N1518    N        0.28372    0.42306    0.54847    1.000
    Si1519   Si       0.22020    0.48436    0.50675    1.000
    Si1520   Si       0.27406    0.35825    0.62003    1.000
    N1521    N        0.27422    0.29285    0.71532    1.000
    N1522    N        0.26024    0.28239    0.65039    1.000
    N1523    N        0.25696    0.35092    0.66489    1.000
    Si1524   Si       0.23395    0.29352    0.73074    1.000
    Si1525   Si       0.27526    0.31280    0.67645    1.000
    Si1526   Si       0.25695    0.49149    0.69644    1.000
    N1527    N        0.24677    0.41833    0.65361    1.000
    Si1528   Si       0.27928    0.38783    0.67658    1.000
    N1529    N        0.24463    0.48248    0.62702    1.000
    N1530    N        0.27239    0.49587    0.73904    1.000
    N1531    N        0.25927    0.40357    0.71329    1.000
    Si1532   Si       0.22746    0.42353    0.69259    1.000
    Si1533   Si       0.22235    0.44457    0.62890    1.000
    Si1534   Si       0.23356    0.29609    0.81557    1.000
    N1535    N        0.23906    0.29015    0.77344    1.000
    N1536    N        0.27294    0.29290    0.83555    1.000
    Si1537   Si       0.23086    0.35747    0.86524    1.000
    N1538    N        0.23450    0.38148    0.77340    1.000
    Si1539   Si       0.23942    0.49910    0.83518    1.000
    Si1540   Si       0.26966    0.39529    0.75473    1.000
    N1541    N        0.24772    0.45705    0.83324    1.000
    N1542    N        0.27953    0.43476    0.77024    1.000
    N1543    N        0.27237    0.35721    0.87376    1.000
    Si1544   Si       0.26433    0.35785    0.97879    1.000
    N1545    N        0.25198    0.33518    0.94205    1.000
    Si1546   Si       0.24628    0.29603    0.97316    1.000
    Si1547   Si       0.24514    0.26163    0.89603    1.000
    N1548    N        0.25245    0.25647    0.93825    1.000
    N1549    N        0.24360    0.39554    0.98189    1.000
    N1550    N        0.24925    0.46128    0.94455    1.000
    Si1551   Si       0.27017    0.49838    0.95565    1.000
    Si1552   Si       0.26094    0.43530    0.98081    1.000
    Si1553   Si       0.25323    0.58938    0.09482    1.000
    N1554    N        0.24704    0.52181    0.04131    1.000
    N1555    N        0.28128    0.55803    0.10445    1.000
    N1556    N        0.22831    0.58098    0.05927    1.000
    N1557    N        0.23879    0.71550    0.02206    1.000
    Si1558   Si       0.27641    0.64592    0.04820    1.000
    N1559    N        0.23331    0.64884    0.04693    1.000
    N1560    N        0.27905    0.75416    0.06790    1.000
    Si1561   Si       0.27838    0.72279    0.03918    1.000
    Si1562   Si       0.27717    0.56231    0.23437    1.000
    N1563    N        0.23748    0.56391    0.22113    1.000
    N1564    N        0.24060    0.62357    0.18914    1.000
    N1565    N        0.25167    0.66423    0.13142    1.000
    N1566    N        0.24594    0.74105    0.12794    1.000
    N1567    N        0.26516    0.72278    0.23923    1.000
    N1568    N        0.23061    0.70471    0.18289    1.000
    Si1569   Si       0.27087    0.70337    0.20017    1.000
    Si1570   Si       0.23008    0.70099    0.13916    1.000
    N1571    N        0.24421    0.53149    0.34797    1.000
    Si1572   Si       0.25083    0.60462    0.28980    1.000
    N1573    N        0.27973    0.57342    0.27730    1.000
    N1574    N        0.28423    0.59062    0.37029    1.000
    Si1575   Si       0.28226    0.51114    0.33960    1.000
    N1576    N        0.22211    0.58199    0.31237    1.000
    N1577    N        0.27114    0.64095    0.30687    1.000
    Si1578   Si       0.27440    0.72969    0.32334    1.000
    N1579    N        0.25053    0.70003    0.34748    1.000
    Si1580   Si       0.23765    0.66789    0.31988    1.000
    N1581    N        0.24204    0.74579    0.30003    1.000
    Si1582   Si       0.23160    0.71832    0.26518    1.000
    Si1583   Si       0.25238    0.56282    0.38007    1.000
    N1584    N        0.25920    0.54178    0.41783    1.000
    N1585    N        0.25153    0.62090    0.42865    1.000
    Si1586   Si       0.22858    0.52005    0.44032    1.000
    Si1587   Si       0.24623    0.56625    0.49647    1.000
    N1588    N        0.22723    0.70872    0.41589    1.000
    Si1589   Si       0.25704    0.73755    0.43039    1.000
    Si1590   Si       0.25113    0.63818    0.46790    1.000
    N1591    N        0.26243    0.60850    0.57301    1.000
    Si1592   Si       0.25760    0.53051    0.55983    1.000
    Si1593   Si       0.23379    0.58732    0.60241    1.000
    N1594    N        0.23591    0.54383    0.59661    1.000
    N1595    N        0.24959    0.60859    0.50037    1.000
    Si1596   Si       0.24550    0.62806    0.54029    1.000
    N1597    N        0.22908    0.54980    0.53315    1.000
    N1598    N        0.25183    0.74515    0.54428    1.000
    Si1599   Si       0.25701    0.71324    0.60756    1.000
    Si1600   Si       0.23877    0.70351    0.54681    1.000
    N1601    N        0.26001    0.66939    0.53152    1.000
    N1602    N        0.24405    0.75425    0.61444    1.000
    N1603    N        0.22794    0.68909    0.58612    1.000
    Si1604   Si       0.22664    0.52136    0.63441    1.000
    Si1605   Si       0.26573    0.56883    0.67488    1.000
    N1606    N        0.26301    0.58853    0.63625    1.000
    N1607    N        0.24876    0.52812    0.67135    1.000
    N1608    N        0.24181    0.59247    0.70131    1.000
    Si1609   Si       0.25530    0.63315    0.69738    1.000
    N1610    N        0.22334    0.65246    0.67739    1.000
    Si1611   Si       0.23770    0.69492    0.67848    1.000
    Si1612   Si       0.27364    0.75460    0.70557    1.000
    N1613    N        0.26698    0.65185    0.73555    1.000
    N1614    N        0.26564    0.69655    0.64656    1.000
    N1615    N        0.26340    0.71173    0.70958    1.000
    N1616    N        0.24978    0.52596    0.80050    1.000
    N1617    N        0.23545    0.59795    0.77204    1.000
    N1618    N        0.26877    0.58392    0.83470    1.000
    Si1619   Si       0.23944    0.56780    0.80405    1.000
    N1620    N        0.27011    0.51340    0.86261    1.000
    Si1621   Si       0.22871    0.59775    0.86153    1.000
    Si1622   Si       0.28713    0.62556    0.83843    1.000
    Si1623   Si       0.23810    0.50898    0.76387    1.000
    Si1624   Si       0.25267    0.63849    0.77344    1.000
    N1625    N        0.23540    0.63925    0.85058    1.000
    N1626    N        0.25092    0.70736    0.83061    1.000
    Si1627   Si       0.23002    0.74493    0.84039    1.000
    N1628    N        0.28182    0.65139    0.80454    1.000
    Si1629   Si       0.23737    0.56795    0.93706    1.000
    N1630    N        0.23490    0.60003    0.96691    1.000
    N1631    N        0.24689    0.58947    0.89856    1.000
    N1632    N        0.23917    0.52744    0.95211    1.000
    Si1633   Si       0.27720    0.60155    0.97477    1.000
    Si1634   Si       0.23811    0.70920    0.90821    1.000
    N1635    N        0.22851    0.74324    0.88167    1.000
    Si1636   Si       0.23042    0.73931    0.98546    1.000
    N1637    N        0.22552    0.71973    0.94864    1.000
    N1638    N        0.24827    0.80472    0.10528    1.000
    Si1639   Si       0.26031    0.82984    0.02182    1.000
    N1640    N        0.26634    0.85343    0.05796    1.000
    Si1641   Si       0.24549    0.76452    0.09166    1.000
    Si1642   Si       0.23194    0.83451    0.07955    1.000
    N1643    N        0.22333    0.81431    0.03979    1.000
    Si1644   Si       0.26177    0.92654    0.10533    1.000
    N1645    N        0.23727    0.91727    0.06892    1.000
    Si1646   Si       0.25865    0.92541    0.03309    1.000
    N1647    N        0.26084    0.96682    0.01711    1.000
    N1648    N        0.27176    0.96756    0.10523    1.000
    N1649    N        0.23945    0.90204    0.00178    1.000
    Si1650   Si       0.25810    0.82330    0.20948    1.000
    N1651    N        0.24801    0.86470    0.20062    1.000
    N1652    N        0.26540    0.79780    0.17555    1.000
    Si1653   Si       0.27859    0.81397    0.13592    1.000
    N1654    N        0.22674    0.80593    0.23587    1.000
    Si1655   Si       0.27306    0.75981    0.15605    1.000
    Si1656   Si       0.22099    0.88596    0.22825    1.000
    Si1657   Si       0.23423    0.00349    0.19574    1.000
    Si1658   Si       0.26696    0.88667    0.16966    1.000
    N1659    N        0.24491    0.91514    0.14436    1.000
    N1660    N        0.27068    0.00016    0.21827    1.000
    Si1661   Si       0.28084    0.98689    0.14171    1.000
    N1662    N        0.24430    0.97860    0.16409    1.000
    Si1663   Si       0.25598    0.83704    0.33589    1.000
    N1664    N        0.24646    0.86944    0.26505    1.000
    N1665    N        0.22223    0.87176    0.33339    1.000
    Si1666   Si       0.25348    0.96808    0.30300    1.000
    N1667    N        0.26003    0.92474    0.30609    1.000
    N1668    N        0.24389    0.99254    0.33858    1.000
    Si1669   Si       0.22912    0.89465    0.29615    1.000
    Si1670   Si       0.24219    0.89950    0.36280    1.000
    N1671    N        0.22900    0.97631    0.26681    1.000
    N1672    N        0.28282    0.88547    0.35388    1.000
    N1673    N        0.26809    0.82868    0.37732    1.000
    Si1674   Si       0.26210    0.80439    0.41212    1.000
    Si1675   Si       0.26798    0.79947    0.47748    1.000
    N1676    N        0.24414    0.76857    0.45721    1.000
    N1677    N        0.23239    0.81845    0.49181    1.000
    N1678    N        0.27588    0.76501    0.40078    1.000
    Si1679   Si       0.26036    0.93229    0.42560    1.000
    Si1680   Si       0.23158    0.96737    0.37065    1.000
    N1681    N        0.26855    0.95376    0.38725    1.000
    N1682    N        0.24512    0.89410    0.40748    1.000
    N1683    N        0.24835    0.81062    0.57041    1.000
    N1684    N        0.25290    0.86548    0.53251    1.000
    Si1685   Si       0.27439    0.82751    0.54152    1.000
    Si1686   Si       0.24144    0.84004    0.60059    1.000
    Si1687   Si       0.23520    0.77048    0.57624    1.000
    N1688    N        0.28128    0.85700    0.60866    1.000
    Si1689   Si       0.26656    0.95583    0.59320    1.000
    Si1690   Si       0.24848    0.90866    0.54139    1.000
    N1691    N        0.25683    0.98528    0.56356    1.000
    N1692    N        0.25008    0.93301    0.50602    1.000
    N1693    N        0.27805    0.92253    0.56751    1.000
    N1694    N        0.23477    0.93854    0.61796    1.000
    N1695    N        0.24074    0.82165    0.64019    1.000
    N1696    N        0.26925    0.87030    0.68108    1.000
    N1697    N        0.23739    0.77131    0.68707    1.000
    Si1698   Si       0.27717    0.84073    0.65007    1.000
    Si1699   Si       0.22605    0.77947    0.64702    1.000
    N1700    N        0.27983    0.76503    0.74652    1.000
    N1701    N        0.25396    0.93864    0.68747    1.000
    Si1702   Si       0.22792    0.95659    0.65790    1.000
    N1703    N        0.23815    0.99837    0.65696    1.000
    N1704    N        0.27681    0.98810    0.73131    1.000
    Si1705   Si       0.23871    0.89723    0.69438    1.000
    N1706    N        0.26499    0.87071    0.78763    1.000
    Si1707   Si       0.26594    0.83448    0.76253    1.000
    Si1708   Si       0.24473    0.77371    0.76811    1.000
    N1709    N        0.22846    0.81403    0.76149    1.000
    N1710    N        0.25046    0.77104    0.81221    1.000
    N1711    N        0.25384    0.90636    0.85352    1.000
    N1712    N        0.25356    0.94204    0.78184    1.000
    N1713    N        0.25354    0.97274    0.84389    1.000
    Si1714   Si       0.25684    0.90436    0.76264    1.000
    Si1715   Si       0.26095    0.98566    0.77277    1.000
    Si1716   Si       0.27009    0.93519    0.82454    1.000
    Si1717   Si       0.24503    0.80324    0.95364    1.000
    N1718    N        0.24901    0.83851    0.97915    1.000
    N1719    N        0.26113    0.76924    0.97774    1.000
    N1720    N        0.26427    0.80999    0.91613    1.000
    Si1721   Si       0.24139    0.87777    0.96467    1.000
    Si1722   Si       0.28067    0.90131    0.88964    1.000
    Si1723   Si       0.25731    0.99582    0.94825    1.000
    Si1724   Si       0.25486    0.96920    0.88496    1.000
    Si1725   Si       0.22605    0.92694    0.93683    1.000
    N1726    N        0.25792    0.89760    0.92912    1.000
    N1727    N        0.32707    0.04695    0.07673    1.000
    Si1728   Si       0.29925    0.04819    0.04063    1.000
    Si1729   Si       0.30976    0.05385    0.11536    1.000
    N1730    N        0.31529    0.01803    0.01210    1.000
    N1731    N        0.30246    0.13594    0.02878    1.000
    Si1732   Si       0.33179    0.14981    0.05504    1.000
    Si1733   Si       0.31984    0.19351    0.09864    1.000
    N1734    N        0.31559    0.19349    0.05376    1.000
    Si1735   Si       0.31421    0.22821    0.03050    1.000
    N1736    N        0.32631    0.15136    0.09850    1.000
    N1737    N        0.33787    0.01545    0.23159    1.000
    N1738    N        0.30037    0.09382    0.13003    1.000
    Si1739   Si       0.31458    0.09852    0.19986    1.000
    Si1740   Si       0.32771    0.12685    0.13379    1.000
    N1741    N        0.31180    0.08853    0.24237    1.000
    Si1742   Si       0.31562    0.21313    0.16134    1.000
    N1743    N        0.32485    0.13519    0.18022    1.000
    N1744    N        0.29546    0.19767    0.19457    1.000
    Si1745   Si       0.28916    0.15717    0.19181    1.000
    N1746    N        0.32705    0.24081    0.24219    1.000
    N1747    N        0.29034    0.20927    0.12775    1.000
    N1748    N        0.32394    0.05385    0.29995    1.000
    Si1749   Si       0.29487    0.06543    0.36503    1.000
    Si1750   Si       0.31475    0.01267    0.31290    1.000
    Si1751   Si       0.28548    0.07280    0.28801    1.000
    Si1752   Si       0.30522    0.13018    0.25798    1.000
    N1753    N        0.28625    0.10806    0.36692    1.000
    N1754    N        0.28479    0.11765    0.29294    1.000
    Si1755   Si       0.31634    0.22090    0.28506    1.000
    N1756    N        0.31443    0.16289    0.33575    1.000
    N1757    N        0.32553    0.22919    0.32911    1.000
    Si1758   Si       0.32483    0.19861    0.35880    1.000
    Si1759   Si       0.27912    0.13614    0.33292    1.000
    N1760    N        0.28359    0.20163    0.26937    1.000
    N1761    N        0.33387    0.06327    0.38391    1.000
    N1762    N        0.31511    0.02061    0.43587    1.000
    Si1763   Si       0.33741    0.02349    0.39688    1.000
    N1764    N        0.33894    0.05175    0.49044    1.000
    Si1765   Si       0.32734    0.01150    0.47608    1.000
    Si1766   Si       0.34158    0.23415    0.41824    1.000
    N1767    N        0.29890    0.14391    0.44248    1.000
    N1768    N        0.30409    0.25014    0.40380    1.000
    Si1769   Si       0.33171    0.16705    0.42583    1.000
    N1770    N        0.33165    0.20698    0.45228    1.000
    N1771    N        0.30275    0.18673    0.39531    1.000
    Si1772   Si       0.29795    0.22112    0.47541    1.000
    Si1773   Si       0.29727    0.05435    0.58886    1.000
    Si1774   Si       0.31788    0.07178    0.52108    1.000
    N1775    N        0.33490    0.03657    0.60250    1.000
    N1776    N        0.29006    0.09944    0.59142    1.000
    N1777    N        0.31119    0.11239    0.50616    1.000
    Si1778   Si       0.33163    0.10919    0.58794    1.000
    N1779    N        0.29297    0.04575    0.54597    1.000
    N1780    N        0.34133    0.07982    0.55718    1.000
    N1781    N        0.33729    0.21564    0.56728    1.000
    Si1782   Si       0.30840    0.23246    0.54101    1.000
    N1783    N        0.28916    0.20416    0.51579    1.000
    N1784    N        0.33491    0.25076    0.51178    1.000
    N1785    N        0.28894    0.10298    0.72040    1.000
    N1786    N        0.30554    0.02439    0.67156    1.000
    Si1787   Si       0.32824    0.08837    0.73324    1.000
    Si1788   Si       0.28787    0.02637    0.71365    1.000
    N1789    N        0.31829    0.04682    0.73953    1.000
    Si1790   Si       0.34172    0.03076    0.64575    1.000
    Si1791   Si       0.29400    0.25541    0.72234    1.000
    Si1792   Si       0.29211    0.25086    0.64313    1.000
    N1793    N        0.30169    0.23453    0.68333    1.000
    N1794    N        0.31436    0.17582    0.63213    1.000
    Si1795   Si       0.28767    0.19906    0.70481    1.000
    N1796    N        0.31424    0.16829    0.72163    1.000
    N1797    N        0.32865    0.25364    0.74745    1.000
    Si1798   Si       0.29918    0.03622    0.82345    1.000
    N1799    N        0.29386    0.11918    0.78171    1.000
    Si1800   Si       0.33426    0.12155    0.79856    1.000
    N1801    N        0.29698    0.04933    0.86570    1.000
    N1802    N        0.33868    0.04648    0.80875    1.000
    N1803    N        0.33908    0.10776    0.83925    1.000
    Si1804   Si       0.30318    0.18763    0.81565    1.000
    N1805    N        0.30972    0.23004    0.81115    1.000
    N1806    N        0.30459    0.17122    0.85753    1.000
    N1807    N        0.33559    0.16694    0.79387    1.000
    Si1808   Si       0.28872    0.14058    0.74362    1.000
    Si1809   Si       0.29504    0.25631    0.84159    1.000
    Si1810   Si       0.34156    0.09055    0.93745    1.000
    Si1811   Si       0.32290    0.12935    0.87199    1.000
    N1812    N        0.31293    0.05547    0.93405    1.000
    Si1813   Si       0.29886    0.02762    0.90254    1.000
    N1814    N        0.33322    0.10640    0.97593    1.000
    Si1815   Si       0.29147    0.11474    0.99193    1.000
    Si1816   Si       0.28560    0.06146    0.96729    1.000
    N1817    N        0.33998    0.18032    0.96227    1.000
    Si1818   Si       0.29699    0.18298    0.96777    1.000
    N1819    N        0.32497    0.24816    0.93494    1.000
    Si1820   Si       0.28943    0.25198    0.96068    1.000
    N1821    N        0.28567    0.19231    0.92841    1.000
    N1822    N        0.29672    0.22225    0.99255    1.000
    N1823    N        0.31352    0.31948    0.04330    1.000
    Si1824   Si       0.31968    0.35679    0.06605    1.000
    N1825    N        0.30825    0.29095    0.10688    1.000
    Si1826   Si       0.28911    0.29397    0.06828    1.000
    N1827    N        0.29140    0.36887    0.09652    1.000
    N1828    N        0.28545    0.25581    0.04952    1.000
    N1829    N        0.33774    0.38616    0.03817    1.000
    Si1830   Si       0.31276    0.47116    0.01891    1.000
    N1831    N        0.29013    0.47213    0.05613    1.000
    N1832    N        0.32921    0.50096    0.11272    1.000
    N1833    N        0.30240    0.43335    0.99619    1.000
    N1834    N        0.31761    0.25608    0.16304    1.000
    N1835    N        0.33610    0.30032    0.21921    1.000
    Si1836   Si       0.30561    0.28016    0.24354    1.000
    Si1837   Si       0.28947    0.25648    0.13004    1.000
    N1838    N        0.32065    0.47382    0.24344    1.000
    N1839    N        0.34094    0.38382    0.14651    1.000
    N1840    N        0.29949    0.48422    0.17465    1.000
    Si1841   Si       0.30090    0.39151    0.13404    1.000
    Si1842   Si       0.32057    0.49797    0.20824    1.000
    N1843    N        0.30102    0.43489    0.12467    1.000
    N1844    N        0.32036    0.41390    0.20958    1.000
    Si1845   Si       0.32207    0.46815    0.14209    1.000
    N1846    N        0.29915    0.30121    0.35254    1.000
    Si1847   Si       0.31533    0.27170    0.32515    1.000
    N1848    N        0.29769    0.36285    0.31352    1.000
    Si1849   Si       0.29891    0.36527    0.26983    1.000
    N1850    N        0.29336    0.26354    0.28843    1.000
    N1851    N        0.29008    0.32233    0.25890    1.000
    N1852    N        0.34060    0.36840    0.26229    1.000
    N1853    N        0.30232    0.41834    0.27921    1.000
    Si1854   Si       0.31546    0.40114    0.32104    1.000
    Si1855   Si       0.32292    0.49469    0.28093    1.000
    Si1856   Si       0.33143    0.43120    0.24859    1.000
    N1857    N        0.28613    0.42707    0.34154    1.000
    Si1858   Si       0.30366    0.29213    0.39585    1.000
    N1859    N        0.29929    0.37664    0.41772    1.000
    Si1860   Si       0.33886    0.35963    0.41223    1.000
    N1861    N        0.33516    0.31835    0.41075    1.000
    N1862    N        0.28659    0.26494    0.47228    1.000
    N1863    N        0.34169    0.31288    0.47953    1.000
    N1864    N        0.29581    0.48557    0.37479    1.000
    N1865    N        0.33179    0.44739    0.42765    1.000
    Si1866   Si       0.32510    0.48537    0.40607    1.000
    Si1867   Si       0.29805    0.41988    0.43048    1.000
    N1868    N        0.29049    0.31200    0.52503    1.000
    N1869    N        0.28928    0.32451    0.59740    1.000
    Si1870   Si       0.31435    0.28729    0.49901    1.000
    N1871    N        0.32410    0.26451    0.61901    1.000
    Si1872   Si       0.32327    0.30789    0.61793    1.000
    N1873    N        0.32517    0.38645    0.50533    1.000
    Si1874   Si       0.31520    0.44471    0.57063    1.000
    N1875    N        0.31170    0.45095    0.61395    1.000
    N1876    N        0.32522    0.48041    0.55216    1.000
    Si1877   Si       0.28654    0.40394    0.50925    1.000
    N1878    N        0.31731    0.31635    0.66110    1.000
    N1879    N        0.31377    0.37196    0.70159    1.000
    Si1880   Si       0.33459    0.36734    0.74062    1.000
    Si1881   Si       0.33976    0.33924    0.68888    1.000
    Si1882   Si       0.33531    0.46833    0.69152    1.000
    N1883    N        0.30115    0.38680    0.63642    1.000
    Si1884   Si       0.33001    0.41772    0.63533    1.000
    N1885    N        0.29682    0.47838    0.67719    1.000
    N1886    N        0.33665    0.47282    0.73616    1.000
    Si1887   Si       0.28798    0.48335    0.63237    1.000
    N1888    N        0.32613    0.33526    0.82921    1.000
    Si1889   Si       0.29469    0.32200    0.85733    1.000
    Si1890   Si       0.32365    0.37561    0.81083    1.000
    N1891    N        0.30604    0.37263    0.77145    1.000
    N1892    N        0.33146    0.27364    0.85658    1.000
    N1893    N        0.30245    0.40550    0.83414    1.000
    N1894    N        0.30935    0.47581    0.80202    1.000
    Si1895   Si       0.30072    0.47161    0.75804    1.000
    N1896    N        0.33363    0.48968    0.86589    1.000
    Si1897   Si       0.33515    0.50097    0.82389    1.000
    Si1898   Si       0.28386    0.43968    0.81369    1.000
    N1899    N        0.30280    0.30924    0.90023    1.000
    Si1900   Si       0.33050    0.27565    0.90151    1.000
    N1901    N        0.30732    0.35633    0.98669    1.000
    N1902    N        0.29008    0.29000    0.97972    1.000
    Si1903   Si       0.28481    0.34514    0.91638    1.000
    N1904    N        0.30593    0.38217    0.92185    1.000
    Si1905   Si       0.31927    0.31510    0.99957    1.000
    Si1906   Si       0.30245    0.40015    0.87880    1.000
    Si1907   Si       0.29438    0.48485    0.88597    1.000
    N1908    N        0.28964    0.44064    0.88706    1.000
    N1909    N        0.29312    0.50336    0.99323    1.000
    N1910    N        0.30004    0.50601    0.92416    1.000
    Si1911   Si       0.32545    0.39533    0.99690    1.000
    N1912    N        0.31309    0.53985    0.05640    1.000
    Si1913   Si       0.31407    0.58010    0.07848    1.000
    Si1914   Si       0.33213    0.58202    0.00750    1.000
    Si1915   Si       0.29350    0.51862    0.09270    1.000
    N1916    N        0.28890    0.57447    0.00623    1.000
    Si1917   Si       0.28282    0.53569    0.02215    1.000
    N1918    N        0.28599    0.61824    0.08247    1.000
    N1919    N        0.28447    0.63882    0.00446    1.000
    N1920    N        0.30731    0.73290    0.00932    1.000
    Si1921   Si       0.33004    0.69056    0.08005    1.000
    N1922    N        0.29172    0.68545    0.05824    1.000
    Si1923   Si       0.28928    0.64286    0.11836    1.000
    N1924    N        0.32313    0.67282    0.12029    1.000
    N1925    N        0.34347    0.67046    0.01073    1.000
    N1926    N        0.29713    0.59866    0.21689    1.000
    N1927    N        0.30279    0.61903    0.15355    1.000
    N1928    N        0.31010    0.53727    0.22015    1.000
    Si1929   Si       0.33386    0.57434    0.21646    1.000
    Si1930   Si       0.28367    0.62897    0.19124    1.000
    N1931    N        0.33289    0.71596    0.22918    1.000
    Si1932   Si       0.33460    0.73948    0.19396    1.000
    N1933    N        0.29414    0.73279    0.18003    1.000
    Si1934   Si       0.33070    0.67204    0.22996    1.000
    N1935    N        0.29422    0.66944    0.20374    1.000
    N1936    N        0.31632    0.53952    0.33992    1.000
    Si1937   Si       0.32242    0.58129    0.35255    1.000
    Si1938   Si       0.31367    0.55814    0.29739    1.000
    N1939    N        0.33452    0.59561    0.31258    1.000
    Si1940   Si       0.30900    0.66565    0.30435    1.000
    Si1941   Si       0.30263    0.73222    0.25902    1.000
    N1942    N        0.29856    0.70689    0.29449    1.000
    N1943    N        0.32845    0.64958    0.26621    1.000
    N1944    N        0.33945    0.66402    0.33538    1.000
    N1945    N        0.31014    0.58444    0.42977    1.000
    Si1946   Si       0.29300    0.54523    0.44407    1.000
    N1947    N        0.32266    0.51523    0.43783    1.000
    Si1948   Si       0.28827    0.61363    0.40615    1.000
    N1949    N        0.28666    0.55340    0.48716    1.000
    Si1950   Si       0.31026    0.67520    0.44071    1.000
    N1951    N        0.28880    0.65604    0.47379    1.000
    N1952    N        0.33785    0.71690    0.38115    1.000
    Si1953   Si       0.32249    0.72853    0.46983    1.000
    Si1954   Si       0.31069    0.75138    0.37860    1.000
    Si1955   Si       0.33926    0.67274    0.37894    1.000
    N1956    N        0.29055    0.71446    0.44274    1.000
    N1957    N        0.31030    0.65402    0.40335    1.000
    N1958    N        0.29966    0.54691    0.55423    1.000
    Si1959   Si       0.32077    0.55478    0.51563    1.000
    Si1960   Si       0.32598    0.54549    0.58871    1.000
    N1961    N        0.32511    0.58638    0.60505    1.000
    Si1962   Si       0.29026    0.61033    0.60755    1.000
    N1963    N        0.30647    0.51954    0.61809    1.000
    N1964    N        0.34429    0.59096    0.51408    1.000
    N1965    N        0.30881    0.71729    0.50907    1.000
    Si1966   Si       0.32250    0.67972    0.57959    1.000
    N1967    N        0.30695    0.65003    0.60846    1.000
    Si1968   Si       0.29880    0.67433    0.51204    1.000
    N1969    N        0.32756    0.65929    0.54227    1.000
    Si1970   Si       0.29533    0.73761    0.54453    1.000
    N1971    N        0.29093    0.71032    0.57910    1.000
    N1972    N        0.30716    0.57572    0.68769    1.000
    Si1973   Si       0.32529    0.61568    0.68267    1.000
    Si1974   Si       0.33492    0.57172    0.72078    1.000
    Si1975   Si       0.28746    0.69013    0.73912    1.000
    Si1976   Si       0.33854    0.71542    0.69295    1.000
    N1977    N        0.29074    0.64054    0.67406    1.000
    Si1978   Si       0.29992    0.67186    0.64478    1.000
    N1979    N        0.32574    0.68388    0.72075    1.000
    N1980    N        0.31359    0.75199    0.68583    1.000
    N1981    N        0.33622    0.69345    0.65486    1.000
    N1982    N        0.32936    0.54502    0.82651    1.000
    Si1983   Si       0.29153    0.54991    0.84927    1.000
    N1984    N        0.33283    0.54341    0.75335    1.000
    N1985    N        0.33452    0.61425    0.83267    1.000
    N1986    N        0.31937    0.69451    0.84294    1.000
    N1987    N        0.30141    0.71083    0.77606    1.000
    Si1988   Si       0.31562    0.75114    0.76947    1.000
    Si1989   Si       0.28708    0.69470    0.81306    1.000
    Si1990   Si       0.33547    0.65524    0.86202    1.000
    N1991    N        0.28763    0.57043    0.94195    1.000
    Si1992   Si       0.31816    0.54654    0.92419    1.000
    N1993    N        0.31407    0.56690    0.88386    1.000
    Si1994   Si       0.28845    0.60022    0.90658    1.000
    N1995    N        0.29253    0.63156    0.93974    1.000
    N1996    N        0.29760    0.63757    0.87943    1.000
    Si1997   Si       0.31793    0.64820    0.97743    1.000
    N1998    N        0.32375    0.68581    0.95316    1.000
    Si1999   Si       0.30420    0.66623    0.91527    1.000
    Si2000   Si       0.30907    0.72404    0.87506    1.000
    Si2001   Si       0.33767    0.70739    0.98942    1.000
    N2002    N        0.28115    0.69827    0.90069    1.000
    N2003    N        0.29982    0.80994    0.02128    1.000
    Si2004   Si       0.31488    0.76601    0.08902    1.000
    Si2005   Si       0.33792    0.82337    0.03973    1.000
    N2006    N        0.33751    0.85998    0.06453    1.000
    Si2007   Si       0.29833    0.87913    0.06708    1.000
    N2008    N        0.30034    0.90467    0.10406    1.000
    N2009    N        0.29941    0.91195    0.03925    1.000
    Si2010   Si       0.30016    0.97949    0.00211    1.000
    N2011    N        0.33685    0.95713    0.00484    1.000
    Si2012   Si       0.33994    0.92275    0.03231    1.000
    Si2013   Si       0.33074    0.80146    0.23939    1.000
    N2014    N        0.30230    0.77845    0.12793    1.000
    N2015    N        0.29476    0.82923    0.23552    1.000
    N2016    N        0.28821    0.85507    0.14377    1.000
    N2017    N        0.34220    0.78367    0.20077    1.000
    Si2018   Si       0.33574    0.91913    0.20597    1.000
    N2019    N        0.30562    0.90551    0.17848    1.000
    Si2020   Si       0.31863    0.88612    0.13909    1.000
    Si2021   Si       0.31097    0.98977    0.20899    1.000
    N2022    N        0.31666    0.98732    0.16544    1.000
    N2023    N        0.32539    0.95327    0.22943    1.000
    Si2024   Si       0.31442    0.79212    0.30947    1.000
    N2025    N        0.31524    0.77238    0.27028    1.000
    Si2026   Si       0.28576    0.85018    0.27178    1.000
    N2027    N        0.31039    0.88168    0.28894    1.000
    N2028    N        0.28701    0.82487    0.30826    1.000
    N2029    N        0.30003    0.76151    0.33811    1.000
    N2030    N        0.31789    0.94014    0.33836    1.000
    Si2031   Si       0.29642    0.90880    0.31965    1.000
    N2032    N        0.28587    0.99472    0.28708    1.000
    N2033    N        0.31573    0.00738    0.35814    1.000
    Si2034   Si       0.30608    0.96472    0.37086    1.000
    N2035    N        0.34234    0.77994    0.39222    1.000
    N2036    N        0.29250    0.81149    0.44343    1.000
    Si2037   Si       0.33252    0.79465    0.43212    1.000
    Si2038   Si       0.29678    0.86378    0.38565    1.000
    N2039    N        0.33599    0.84540    0.38190    1.000
    N2040    N        0.34357    0.76356    0.45996    1.000
    Si2041   Si       0.32827    0.93043    0.43121    1.000
    N2042    N        0.29313    0.94498    0.45156    1.000
    Si2043   Si       0.28791    0.95201    0.49413    1.000
    N2044    N        0.31505    0.89136    0.41886    1.000
    N2045    N        0.33816    0.95850    0.40022    1.000
    N2046    N        0.31453    0.83488    0.55742    1.000
    Si2047   Si       0.32016    0.85691    0.59286    1.000
    Si2048   Si       0.33057    0.79908    0.53335    1.000
    N2049    N        0.32810    0.76277    0.55586    1.000
    N2050    N        0.29144    0.79786    0.51297    1.000
    Si2051   Si       0.31949    0.92794    0.55768    1.000
    N2052    N        0.32057    0.93470    0.51600    1.000
    N2053    N        0.29511    0.99406    0.50070    1.000
    N2054    N        0.34041    0.89278    0.57163    1.000
    N2055    N        0.33986    0.96128    0.58009    1.000
    N2056    N        0.33716    0.87863    0.68976    1.000
    Si2057   Si       0.33472    0.77759    0.65748    1.000
    Si2058   Si       0.29941    0.87299    0.70939    1.000
    N2059    N        0.29945    0.83751    0.73167    1.000
    N2060    N        0.31434    0.81746    0.65524    1.000
    N2061    N        0.29152    0.97051    0.62499    1.000
    N2062    N        0.28778    0.91020    0.73246    1.000
    Si2063   Si       0.33273    0.96489    0.62213    1.000
    N2064    N        0.33330    0.94895    0.70839    1.000
    Si2065   Si       0.28742    0.94956    0.71366    1.000
    N2066    N        0.32832    0.87040    0.82377    1.000
    N2067    N        0.29319    0.81490    0.78998    1.000
    Si2068   Si       0.29183    0.78496    0.82481    1.000
    Si2069   Si       0.32734    0.81961    0.75796    1.000
    N2070    N        0.29354    0.82595    0.85126    1.000
    Si2071   Si       0.33310    0.84536    0.86176    1.000
    Si2072   Si       0.29005    0.85212    0.81665    1.000
    N2073    N        0.29476    0.76309    0.86594    1.000
    N2074    N        0.32599    0.76234    0.81041    1.000
    N2075    N        0.34350    0.78017    0.74994    1.000
    Si2076   Si       0.32742    0.97525    0.80621    1.000
    N2077    N        0.31184    0.93487    0.81638    1.000
    N2078    N        0.29151    0.00062    0.79939    1.000
    N2079    N        0.33523    0.80736    0.89591    1.000
    Si2080   Si       0.29366    0.80150    0.88704    1.000
    N2081    N        0.32344    0.78551    0.96049    1.000
    N2082    N        0.31774    0.87769    0.88834    1.000
    Si2083   Si       0.29963    0.77466    0.99520    1.000
    Si2084   Si       0.31573    0.95786    0.92364    1.000
    N2085    N        0.29008    0.94540    0.89318    1.000
    N2086    N        0.32940    0.99567    0.90260    1.000
    N2087    N        0.33662    0.92291    0.93711    1.000
    N2088    N        0.29465    0.97624    0.95820    1.000
    Si2089   Si       0.36430    0.02444    0.08476    1.000
    Si2090   Si       0.36481    0.10384    0.00550    1.000
    N2091    N        0.37364    0.06209    0.00335    1.000
    N2092    N        0.36633    0.12628    0.04377    1.000
    N2093    N        0.39902    0.04617    0.09190    1.000
    Si2094   Si       0.35935    0.02099    0.00747    1.000
    N2095    N        0.35563    0.22041    0.10353    1.000
    Si2096   Si       0.37401    0.24555    0.07253    1.000
    N2097    N        0.35404    0.24497    0.03336    1.000
    Si2098   Si       0.34208    0.05753    0.23747    1.000
    N2099    N        0.37003    0.10723    0.13546    1.000
    Si2100   Si       0.37121    0.07071    0.15882    1.000
    N2101    N        0.35078    0.07206    0.19680    1.000
    N2102    N        0.34693    0.04059    0.13709    1.000
    Si2103   Si       0.35637    0.16217    0.19629    1.000
    N2104    N        0.33981    0.14862    0.24195    1.000
    N2105    N        0.39627    0.15123    0.17966    1.000
    N2106    N        0.35191    0.18954    0.16069    1.000
    Si2107   Si       0.38404    0.19844    0.13191    1.000
    Si2108   Si       0.36894    0.23357    0.23321    1.000
    N2109    N        0.37954    0.19311    0.22150    1.000
    Si2110   Si       0.40326    0.13496    0.13826    1.000
    N2111    N        0.37697    0.25396    0.19497    1.000
    Si2112   Si       0.36408    0.07031    0.30034    1.000
    N2113    N        0.36257    0.11228    0.31726    1.000
    N2114    N        0.37814    0.06924    0.26017    1.000
    N2115    N        0.38750    0.04450    0.32548    1.000
    Si2116   Si       0.40040    0.04041    0.36728    1.000
    Si2117   Si       0.37157    0.17165    0.25769    1.000
    Si2118   Si       0.37036    0.23686    0.30949    1.000
    N2119    N        0.38134    0.16409    0.34660    1.000
    N2120    N        0.35758    0.20393    0.28278    1.000
    Si2121   Si       0.34666    0.13924    0.35085    1.000
    Si2122   Si       0.39533    0.20166    0.36522    1.000
    N2123    N        0.39298    0.25499    0.26310    1.000
    Si2124   Si       0.37576    0.07281    0.48234    1.000
    Si2125   Si       0.36222    0.09204    0.40299    1.000
    N2126    N        0.37935    0.08924    0.44175    1.000
    N2127    N        0.38139    0.01383    0.39293    1.000
    N2128    N        0.39747    0.08171    0.37776    1.000
    N2129    N        0.34654    0.13213    0.39390    1.000
    N2130    N        0.35764    0.21152    0.38453    1.000
    N2131    N        0.36913    0.15844    0.44889    1.000
    Si2132   Si       0.36528    0.19230    0.47610    1.000
    N2133    N        0.40026    0.21591    0.47659    1.000
    Si2134   Si       0.36402    0.04627    0.57145    1.000
    N2135    N        0.37668    0.10707    0.50876    1.000
    N2136    N        0.37960    0.01265    0.54964    1.000
    N2137    N        0.39827    0.06655    0.58632    1.000
    Si2138   Si       0.34354    0.13536    0.52303    1.000
    N2139    N        0.39616    0.22311    0.54773    1.000
    Si2140   Si       0.36895    0.18491    0.55754    1.000
    N2141    N        0.38015    0.18456    0.60475    1.000
    N2142    N        0.35386    0.17616    0.51186    1.000
    Si2143   Si       0.35528    0.24717    0.59024    1.000
    N2144    N        0.39070    0.24779    0.61631    1.000
    Si2145   Si       0.37610    0.25556    0.52831    1.000
    N2146    N        0.34397    0.14371    0.56563    1.000
    N2147    N        0.35277    0.11881    0.62448    1.000
    N2148    N        0.35284    0.11082    0.70292    1.000
    N2149    N        0.36776    0.06317    0.65438    1.000
    Si2150   Si       0.37020    0.10751    0.66167    1.000
    N2151    N        0.38467    0.16827    0.73855    1.000
    Si2152   Si       0.35442    0.16127    0.62909    1.000
    Si2153   Si       0.35529    0.15268    0.70870    1.000
    N2154    N        0.37233    0.16302    0.67017    1.000
    N2155    N        0.35293    0.09914    0.76804    1.000
    N2156    N        0.38524    0.03544    0.76515    1.000
    Si2157   Si       0.36023    0.06767    0.83834    1.000
    Si2158   Si       0.39084    0.07633    0.77417    1.000
    N2159    N        0.39844    0.07543    0.81699    1.000
    Si2160   Si       0.34196    0.02794    0.76939    1.000
    Si2161   Si       0.37607    0.17476    0.78001    1.000
    N2162    N        0.37884    0.21659    0.79286    1.000
    Si2163   Si       0.34374    0.24106    0.78739    1.000
    N2164    N        0.40105    0.14790    0.80140    1.000
    N2165    N        0.37087    0.04456    0.87328    1.000
    N2166    N        0.38164    0.07207    0.93760    1.000
    N2167    N        0.38631    0.00950    0.97389    1.000
    N2168    N        0.33815    0.12378    0.91132    1.000
    Si2169   Si       0.40022    0.06275    0.90096    1.000
    N2170    N        0.39722    0.14323    0.93641    1.000
    N2171    N        0.38584    0.23414    0.97118    1.000
    N2172    N        0.36768    0.19504    0.90934    1.000
    Si2173   Si       0.35554    0.21877    0.94591    1.000
    Si2174   Si       0.35742    0.15737    0.93014    1.000
    N2175    N        0.37642    0.28817    0.08447    1.000
    N2176    N        0.35584    0.34707    0.09080    1.000
    Si2177   Si       0.34834    0.30852    0.10939    1.000
    Si2178   Si       0.37598    0.26351    0.99990    1.000
    Si2179   Si       0.37907    0.39154    0.05189    1.000
    Si2180   Si       0.38891    0.46749    0.04315    1.000
    N2181    N        0.38698    0.40500    0.09452    1.000
    N2182    N        0.38840    0.47502    0.08750    1.000
    N2183    N        0.35166    0.48419    0.02966    1.000
    Si2184   Si       0.39333    0.44096    0.11670    1.000
    N2185    N        0.39154    0.42664    0.02662    1.000
    Si2186   Si       0.37687    0.37177    0.12231    1.000
    N2187    N        0.36858    0.36365    0.20343    1.000
    N2188    N        0.36211    0.30739    0.15115    1.000
    Si2189   Si       0.35248    0.33740    0.23319    1.000
    Si2190   Si       0.34603    0.28178    0.18118    1.000
    N2191    N        0.36346    0.45197    0.14681    1.000
    N2192    N        0.40115    0.38976    0.15706    1.000
    N2193    N        0.38064    0.43377    0.20530    1.000
    N2194    N        0.35950    0.50460    0.18827    1.000
    Si2195   Si       0.38362    0.46774    0.17995    1.000
    Si2196   Si       0.35891    0.40089    0.18288    1.000
    N2197    N        0.35635    0.27894    0.30958    1.000
    N2198    N        0.38459    0.32661    0.26036    1.000
    Si2199   Si       0.38560    0.36876    0.27344    1.000
    Si2200   Si       0.38861    0.29319    0.28435    1.000
    N2201    N        0.40274    0.36903    0.31366    1.000
    Si2202   Si       0.39054    0.38778    0.35110    1.000
    N2203    N        0.37213    0.43103    0.27124    1.000
    N2204    N        0.35630    0.41098    0.33324    1.000
    Si2205   Si       0.37271    0.44556    0.31201    1.000
    N2206    N        0.34757    0.47952    0.31275    1.000
    N2207    N        0.36098    0.36551    0.45082    1.000
    Si2208   Si       0.36264    0.30551    0.44182    1.000
    Si2209   Si       0.35089    0.35404    0.48990    1.000
    N2210    N        0.37200    0.37354    0.39016    1.000
    N2211    N        0.36651    0.26029    0.43911    1.000
    N2212    N        0.35705    0.45347    0.49253    1.000
    Si2213   Si       0.39283    0.38180    0.42677    1.000
    N2214    N        0.35933    0.49406    0.38035    1.000
    N2215    N        0.39736    0.42037    0.44413    1.000
    Si2216   Si       0.36740    0.45371    0.45108    1.000
    Si2217   Si       0.39695    0.49891    0.40083    1.000
    N2218    N        0.38451    0.49123    0.44191    1.000
    N2219    N        0.36384    0.27974    0.56068    1.000
    N2220    N        0.36959    0.34775    0.53091    1.000
    N2221    N        0.35674    0.32893    0.60287    1.000
    Si2222   Si       0.37418    0.32071    0.56395    1.000
    Si2223   Si       0.35726    0.41491    0.51735    1.000
    N2224    N        0.35337    0.42412    0.55852    1.000
    Si2225   Si       0.35590    0.48549    0.52251    1.000
    Si2226   Si       0.38383    0.42204    0.58810    1.000
    N2227    N        0.38656    0.45817    0.61048    1.000
    Si2228   Si       0.38718    0.49541    0.58887    1.000
    N2229    N        0.39359    0.48380    0.54496    1.000
    N2230    N        0.39679    0.40028    0.50822    1.000
    Si2231   Si       0.37498    0.35759    0.63025    1.000
    N2232    N        0.37458    0.35756    0.67394    1.000
    N2233    N        0.34708    0.32542    0.72932    1.000
    N2234    N        0.39525    0.27456    0.74107    1.000
    N2235    N        0.36466    0.39795    0.61971    1.000
    N2236    N        0.36938    0.48782    0.67358    1.000
    Si2237   Si       0.39519    0.45713    0.65374    1.000
    Si2238   Si       0.37359    0.39968    0.69143    1.000
    N2239    N        0.36831    0.39487    0.73563    1.000
    N2240    N        0.34462    0.42973    0.67502    1.000
    N2241    N        0.36107    0.28208    0.79365    1.000
    Si2242   Si       0.35315    0.30140    0.83322    1.000
    N2243    N        0.39312    0.30905    0.84728    1.000
    Si2244   Si       0.35540    0.28776    0.74761    1.000
    N2245    N        0.36569    0.39155    0.80592    1.000
    Si2246   Si       0.37302    0.48017    0.75758    1.000
    Si2247   Si       0.37476    0.40452    0.84816    1.000
    N2248    N        0.38002    0.44853    0.84313    1.000
    Si2249   Si       0.38971    0.40435    0.77221    1.000
    N2250    N        0.39476    0.44758    0.77633    1.000
    N2251    N        0.37024    0.50423    0.79419    1.000
    Si2252   Si       0.37790    0.31158    0.94651    1.000
    N2253    N        0.37270    0.28732    0.91121    1.000
    N2254    N        0.37794    0.35044    0.93071    1.000
    N2255    N        0.35696    0.29934    0.98252    1.000
    N2256    N        0.35747    0.40190    0.96760    1.000
    N2257    N        0.39952    0.50478    0.87878    1.000
    N2258    N        0.37781    0.45425    0.91696    1.000
    N2259    N        0.35054    0.39731    0.88396    1.000
    Si2260   Si       0.39726    0.41331    0.98577    1.000
    Si2261   Si       0.37079    0.47169    0.87952    1.000
    Si2262   Si       0.35131    0.38648    0.92637    1.000
    N2263    N        0.37491    0.53916    0.07135    1.000
    Si2264   Si       0.37424    0.58064    0.07753    1.000
    Si2265   Si       0.34987    0.52548    0.03988    1.000
    N2266    N        0.34991    0.54349    0.00003    1.000
    N2267    N        0.34523    0.59645    0.04731    1.000
    Si2268   Si       0.37142    0.51179    0.10617    1.000
    N2269    N        0.34466    0.58554    0.10873    1.000
    N2270    N        0.39744    0.63307    0.01499    1.000
    Si2271   Si       0.36150    0.63961    0.03820    1.000
    N2272    N        0.35885    0.65819    0.07567    1.000
    Si2273   Si       0.36482    0.66192    0.11894    1.000
    N2274    N        0.33887    0.73025    0.08999    1.000
    N2275    N        0.35221    0.57330    0.17837    1.000
    Si2276   Si       0.38143    0.54068    0.17651    1.000
    N2277    N        0.39804    0.53134    0.13474    1.000
    N2278    N        0.36073    0.59289    0.24645    1.000
    Si2279   Si       0.34285    0.60244    0.14905    1.000
    N2280    N        0.39274    0.69346    0.12713    1.000
    Si2281   Si       0.37229    0.72996    0.12074    1.000
    N2282    N        0.36621    0.65869    0.21099    1.000
    N2283    N        0.37532    0.63129    0.14952    1.000
    Si2284   Si       0.39683    0.64495    0.18570    1.000
    N2285    N        0.36072    0.74357    0.15975    1.000
    N2286    N        0.38559    0.53519    0.33004    1.000
    Si2287   Si       0.38996    0.53591    0.28736    1.000
    Si2288   Si       0.35270    0.61717    0.28021    1.000
    N2289    N        0.34425    0.53341    0.27969    1.000
    Si2290   Si       0.39651    0.56315    0.36167    1.000
    Si2291   Si       0.35062    0.51204    0.34215    1.000
    N2292    N        0.39044    0.63186    0.30095    1.000
    Si2293   Si       0.38210    0.65348    0.33885    1.000
    N2294    N        0.40216    0.74865    0.35541    1.000
    N2295    N        0.35866    0.57976    0.37711    1.000
    Si2296   Si       0.35256    0.58489    0.41991    1.000
    N2297    N        0.37588    0.56132    0.44963    1.000
    Si2298   Si       0.35921    0.52243    0.46016    1.000
    N2299    N        0.36562    0.62090    0.44210    1.000
    Si2300   Si       0.37194    0.59789    0.48030    1.000
    Si2301   Si       0.38431    0.68056    0.47570    1.000
    N2302    N        0.39821    0.74492    0.41905    1.000
    N2303    N        0.34670    0.69102    0.45766    1.000
    Si2304   Si       0.37057    0.74339    0.38598    1.000
    N2305    N        0.39641    0.72029    0.48757    1.000
    Si2306   Si       0.38596    0.75431    0.45984    1.000
    Si2307   Si       0.39555    0.64037    0.41752    1.000
    N2308    N        0.37714    0.65449    0.38190    1.000
    N2309    N        0.36882    0.53543    0.58272    1.000
    Si2310   Si       0.36042    0.60946    0.61725    1.000
    N2311    N        0.37734    0.62426    0.57731    1.000
    N2312    N        0.34637    0.52163    0.50074    1.000
    Si2313   Si       0.35599    0.62850    0.53774    1.000
    N2314    N        0.35658    0.70597    0.58630    1.000
    N2315    N        0.38018    0.64633    0.50429    1.000
    Si2316   Si       0.35927    0.75091    0.58336    1.000
    N2317    N        0.39165    0.57995    0.62871    1.000
    N2318    N        0.37093    0.56078    0.69753    1.000
    Si2319   Si       0.38744    0.52132    0.69678    1.000
    N2320    N        0.35844    0.62688    0.65898    1.000
    N2321    N        0.34076    0.61580    0.72254    1.000
    N2322    N        0.37378    0.73091    0.71494    1.000
    N2323    N        0.35327    0.75216    0.62690    1.000
    Si2324   Si       0.39581    0.64996    0.66815    1.000
    Si2325   Si       0.35383    0.65583    0.73468    1.000
    Si2326   Si       0.36676    0.70895    0.62907    1.000
    N2327    N        0.38987    0.66696    0.70813    1.000
    N2328    N        0.40072    0.68314    0.64023    1.000
    N2329    N        0.37547    0.58574    0.78262    1.000
    Si2330   Si       0.36744    0.62355    0.80471    1.000
    Si2331   Si       0.35554    0.54607    0.78879    1.000
    Si2332   Si       0.34580    0.57820    0.85389    1.000
    N2333    N        0.38697    0.57254    0.86605    1.000
    N2334    N        0.37275    0.66614    0.84031    1.000
    N2335    N        0.37902    0.72236    0.80119    1.000
    N2336    N        0.35460    0.65672    0.77931    1.000
    Si2337   Si       0.35108    0.68953    0.80883    1.000
    N2338    N        0.36160    0.54487    0.92787    1.000
    Si2339   Si       0.38800    0.61146    0.97859    1.000
    Si2340   Si       0.37763    0.53636    0.96734    1.000
    Si2341   Si       0.39459    0.54416    0.89751    1.000
    N2342    N        0.34473    0.61072    0.97993    1.000
    N2343    N        0.34308    0.73304    0.90178    1.000
    N2344    N        0.37213    0.72233    0.96732    1.000
    N2345    N        0.34956    0.66120    0.90296    1.000
    Si2346   Si       0.36153    0.70244    0.92681    1.000
    Si2347   Si       0.39213    0.65227    0.90697    1.000
    Si2348   Si       0.38302    0.79658    0.09135    1.000
    N2349    N        0.36735    0.82437    0.00741    1.000
    N2350    N        0.34342    0.79541    0.07300    1.000
    Si2351   Si       0.36521    0.88444    0.08636    1.000
    N2352    N        0.36253    0.98848    0.10701    1.000
    N2353    N        0.36316    0.92516    0.07028    1.000
    Si2354   Si       0.38550    0.95539    0.09266    1.000
    N2355    N        0.35763    0.89912    0.00084    1.000
    N2356    N        0.37554    0.00620    0.04412    1.000
    Si2357   Si       0.38747    0.85144    0.15168    1.000
    N2358    N        0.38894    0.84864    0.19480    1.000
    N2359    N        0.37955    0.81317    0.13443    1.000
    Si2360   Si       0.37151    0.78591    0.16780    1.000
    N2361    N        0.35753    0.87452    0.12961    1.000
    Si2362   Si       0.40281    0.94665    0.16805    1.000
    N2363    N        0.37495    0.92243    0.18742    1.000
    N2364    N        0.39389    0.99094    0.16797    1.000
    Si2365   Si       0.39092    0.88885    0.21199    1.000
    N2366    N        0.35177    0.88928    0.23524    1.000
    Si2367   Si       0.35361    0.99907    0.14780    1.000
    N2368    N        0.40321    0.93555    0.12649    1.000
    Si2369   Si       0.38057    0.82025    0.29502    1.000
    N2370    N        0.38763    0.86211    0.29355    1.000
    N2371    N        0.37101    0.81199    0.25328    1.000
    N2372    N        0.35164    0.80797    0.32418    1.000
    Si2373   Si       0.35691    0.81262    0.36614    1.000
    Si2374   Si       0.35176    0.88416    0.27756    1.000
    Si2375   Si       0.35515    0.95210    0.32068    1.000
    N2376    N        0.38617    0.95962    0.35047    1.000
    N2377    N        0.36687    0.92250    0.29146    1.000
    N2378    N        0.34695    0.98678    0.29742    1.000
    Si2379   Si       0.35071    0.97932    0.25518    1.000
    N2380    N        0.39103    0.96679    0.24779    1.000
    N2381    N        0.40259    0.82368    0.37368    1.000
    N2382    N        0.35962    0.82627    0.44098    1.000
    Si2383   Si       0.38215    0.82060    0.47748    1.000
    Si2384   Si       0.35009    0.86321    0.41948    1.000
    N2385    N        0.38902    0.88205    0.41627    1.000
    N2386    N        0.36118    0.92552    0.45843    1.000
    N2387    N        0.36285    0.98871    0.48359    1.000
    Si2388   Si       0.39863    0.91613    0.43948    1.000
    Si2389   Si       0.37939    0.97056    0.39186    1.000
    N2390    N        0.37967    0.83684    0.56982    1.000
    Si2391   Si       0.35605    0.85863    0.54016    1.000
    N2392    N        0.35723    0.82360    0.51100    1.000
    N2393    N        0.39593    0.77093    0.57549    1.000
    N2394    N        0.37142    0.88823    0.51103    1.000
    Si2395   Si       0.36665    0.89687    0.60689    1.000
    Si2396   Si       0.37946    0.97219    0.56808    1.000
    N2397    N        0.38890    0.94364    0.53672    1.000
    Si2398   Si       0.36221    0.93076    0.50281    1.000
    Si2399   Si       0.39369    0.00411    0.50917    1.000
    N2400    N        0.35119    0.86000    0.62460    1.000
    N2401    N        0.36637    0.79343    0.68206    1.000
    Si2402   Si       0.37412    0.77283    0.71963    1.000
    Si2403   Si       0.35210    0.84443    0.66595    1.000
    N2404    N        0.39445    0.84757    0.67494    1.000
    Si2405   Si       0.34953    0.91915    0.67888    1.000
    N2406    N        0.35882    0.99096    0.64585    1.000
    N2407    N        0.34507    0.92592    0.63527    1.000
    Si2408   Si       0.35900    0.95252    0.74386    1.000
    N2409    N        0.39153    0.92198    0.68626    1.000
    N2410    N        0.37978    0.77176    0.85449    1.000
    N2411    N        0.37703    0.84344    0.85647    1.000
    N2412    N        0.36406    0.84291    0.76017    1.000
    Si2413   Si       0.36891    0.76282    0.81340    1.000
    Si2414   Si       0.39835    0.80861    0.84347    1.000
    N2415    N        0.39494    0.79814    0.80089    1.000
    Si2416   Si       0.38038    0.88132    0.75831    1.000
    Si2417   Si       0.39288    0.88361    0.86440    1.000
    Si2418   Si       0.40172    0.82010    0.76412    1.000
    Si2419   Si       0.39025    0.95771    0.83995    1.000
    N2420    N        0.35705    0.91708    0.76785    1.000
    N2421    N        0.37498    0.91747    0.84256    1.000
    N2422    N        0.35585    0.98578    0.83619    1.000
    N2423    N        0.34369    0.98487    0.76682    1.000
    Si2424   Si       0.34610    0.90762    0.81256    1.000
    Si2425   Si       0.37102    0.86214    0.98366    1.000
    Si2426   Si       0.36229    0.77228    0.89475    1.000
    N2427    N        0.38732    0.78873    0.92832    1.000
    Si2428   Si       0.35076    0.81130    0.93873    1.000
    N2429    N        0.34952    0.85204    0.94617    1.000
    Si2430   Si       0.34507    0.88525    0.92001    1.000
    N2431    N        0.38667    0.89260    0.90598    1.000
    Si2432   Si       0.36097    0.00187    0.87585    1.000
    N2433    N        0.39782    0.94223    0.95772    1.000
    N2434    N        0.39671    0.97533    0.88234    1.000
    Si2435   Si       0.35814    0.93420    0.97290    1.000
    Si2436   Si       0.43623    0.05846    0.07522    1.000
    N2437    N        0.43089    0.09718    0.05952    1.000
    N2438    N        0.44568    0.02834    0.04528    1.000
    Si2439   Si       0.41126    0.12957    0.04002    1.000
    N2440    N        0.40273    0.16575    0.10896    1.000
    Si2441   Si       0.43052    0.18429    0.08129    1.000
    N2442    N        0.43607    0.16456    0.04400    1.000
    N2443    N        0.41354    0.22602    0.07135    1.000
    N2444    N        0.41020    0.05976    0.17137    1.000
    N2445    N        0.44036    0.11426    0.14398    1.000
    Si2446   Si       0.42156    0.02013    0.18385    1.000
    Si2447   Si       0.44206    0.09055    0.18218    1.000
    N2448    N        0.43426    0.09908    0.22284    1.000
    N2449    N        0.42395    0.02580    0.22705    1.000
    Si2450   Si       0.41730    0.24737    0.17842    1.000
    N2451    N        0.43604    0.23052    0.21306    1.000
    N2452    N        0.42006    0.21166    0.15467    1.000
    N2453    N        0.45012    0.16953    0.21898    1.000
    Si2454   Si       0.41598    0.18715    0.19394    1.000
    Si2455   Si       0.43906    0.13688    0.24645    1.000
    Si2456   Si       0.42752    0.03126    0.31391    1.000
    N2457    N        0.43929    0.06331    0.28686    1.000
    N2458    N        0.43401    0.12029    0.33327    1.000
    N2459    N        0.44140    0.03206    0.35581    1.000
    Si2460   Si       0.42079    0.06598    0.24676    1.000
    Si2461   Si       0.43481    0.25113    0.25181    1.000
    N2462    N        0.40680    0.15021    0.27372    1.000
    N2463    N        0.45454    0.24004    0.28754    1.000
    Si2464   Si       0.39960    0.13716    0.31600    1.000
    N2465    N        0.40274    0.23476    0.33593    1.000
    Si2466   Si       0.42773    0.11193    0.37542    1.000
    N2467    N        0.40652    0.04347    0.49175    1.000
    N2468    N        0.42925    0.12778    0.47890    1.000
    Si2469   Si       0.40178    0.12788    0.44494    1.000
    N2470    N        0.44768    0.25062    0.45484    1.000
    Si2471   Si       0.44854    0.17273    0.40910    1.000
    N2472    N        0.42280    0.13830    0.40797    1.000
    N2473    N        0.43222    0.20620    0.38787    1.000
    Si2474   Si       0.44419    0.21249    0.47593    1.000
    Si2475   Si       0.43695    0.07184    0.56585    1.000
    N2476    N        0.44462    0.10642    0.54409    1.000
    Si2477   Si       0.41356    0.12737    0.52100    1.000
    N2478    N        0.45546    0.04210    0.53876    1.000
    Si2479   Si       0.44867    0.03097    0.49711    1.000
    Si2480   Si       0.43072    0.19815    0.54733    1.000
    N2481    N        0.44732    0.19872    0.58662    1.000
    N2482    N        0.40708    0.16242    0.54398    1.000
    Si2483   Si       0.41376    0.21117    0.61175    1.000
    Si2484   Si       0.45272    0.07238    0.73188    1.000
    N2485    N        0.43648    0.03327    0.72042    1.000
    N2486    N        0.41354    0.10517    0.65026    1.000
    N2487    N        0.42134    0.03164    0.63637    1.000
    Si2488   Si       0.44841    0.12332    0.66753    1.000
    Si2489   Si       0.40278    0.06926    0.62845    1.000
    N2490    N        0.44802    0.16380    0.68596    1.000
    N2491    N        0.44366    0.22907    0.64147    1.000
    Si2492   Si       0.42600    0.17734    0.72238    1.000
    N2493    N        0.42283    0.21884    0.71036    1.000
    Si2494   Si       0.43153    0.08831    0.84237    1.000
    N2495    N        0.42777    0.09418    0.75727    1.000
    N2496    N        0.45350    0.12154    0.82255    1.000
    Si2497   Si       0.43639    0.12915    0.78016    1.000
    N2498    N        0.40229    0.23875    0.86106    1.000
    Si2499   Si       0.43070    0.15908    0.83294    1.000
    N2500    N        0.44305    0.19832    0.81858    1.000
    Si2501   Si       0.41088    0.22931    0.81951    1.000
    N2502    N        0.44871    0.16434    0.75855    1.000
    N2503    N        0.44496    0.04229    0.97407    1.000
    N2504    N        0.41560    0.09668    0.88129    1.000
    N2505    N        0.43391    0.03432    0.90698    1.000
    N2506    N        0.40633    0.12064    0.99687    1.000
    Si2507   Si       0.40118    0.05161    0.97083    1.000
    N2508    N        0.45844    0.13509    0.92564    1.000
    N2509    N        0.45881    0.24697    0.97673    1.000
    N2510    N        0.43841    0.18094    0.97820    1.000
    Si2511   Si       0.42507    0.13400    0.90148    1.000
    N2512    N        0.41677    0.16529    0.87319    1.000
    N2513    N        0.43350    0.21981    0.91776    1.000
    Si2514   Si       0.40520    0.20326    0.88780    1.000
    Si2515   Si       0.43004    0.13996    0.96409    1.000
    Si2516   Si       0.42751    0.21865    0.96110    1.000
    N2517    N        0.44072    0.29782    0.07448    1.000
    Si2518   Si       0.44295    0.36107    0.01808    1.000
    N2519    N        0.41438    0.27554    0.01497    1.000
    N2520    N        0.41340    0.34164    0.11682    1.000
    N2521    N        0.40616    0.35570    0.04534    1.000
    Si2522   Si       0.45542    0.35561    0.11099    1.000
    Si2523   Si       0.45197    0.28705    0.11677    1.000
    Si2524   Si       0.43450    0.26044    0.05107    1.000
    Si2525   Si       0.39848    0.32473    0.07386    1.000
    N2526    N        0.42593    0.48577    0.03148    1.000
    Si2527   Si       0.41373    0.37387    0.20154    1.000
    N2528    N        0.42577    0.33492    0.18770    1.000
    N2529    N        0.42815    0.28009    0.15107    1.000
    Si2530   Si       0.40412    0.31760    0.15356    1.000
    Si2531   Si       0.45590    0.31367    0.20833    1.000
    N2532    N        0.41166    0.38604    0.24456    1.000
    Si2533   Si       0.45136    0.47972    0.15703    1.000
    Si2534   Si       0.43871    0.40761    0.15374    1.000
    Si2535   Si       0.40311    0.42778    0.24230    1.000
    N2536    N        0.42224    0.48782    0.18830    1.000
    N2537    N        0.45333    0.40161    0.19517    1.000
    N2538    N        0.43094    0.44734    0.13919    1.000
    N2539    N        0.41956    0.30116    0.31274    1.000
    Si2540   Si       0.43570    0.34084    0.32061    1.000
    N2541    N        0.45475    0.33969    0.36104    1.000
    Si2542   Si       0.43514    0.26094    0.32252    1.000
    N2543    N        0.44991    0.29328    0.24451    1.000
    Si2544   Si       0.43630    0.47387    0.28292    1.000
    N2545    N        0.41650    0.45503    0.31880    1.000
    Si2546   Si       0.43882    0.44661    0.35708    1.000
    N2547    N        0.40880    0.50447    0.26577    1.000
    N2548    N        0.44362    0.44877    0.24514    1.000
    N2549    N        0.42912    0.40611    0.36971    1.000
    Si2550   Si       0.40437    0.26245    0.46387    1.000
    N2551    N        0.40569    0.30670    0.44612    1.000
    Si2552   Si       0.45250    0.37458    0.38839    1.000
    Si2553   Si       0.44506    0.32553    0.44490    1.000
    N2554    N        0.43358    0.36177    0.42588    1.000
    N2555    N        0.45140    0.33009    0.48758    1.000
    N2556    N        0.43972    0.45929    0.49292    1.000
    N2557    N        0.43142    0.47406    0.39268    1.000
    Si2558   Si       0.42255    0.42033    0.48052    1.000
    Si2559   Si       0.43814    0.33044    0.59789    1.000
    N2560    N        0.41975    0.32943    0.55823    1.000
    Si2561   Si       0.43756    0.30798    0.52202    1.000
    Si2562   Si       0.41155    0.37158    0.53838    1.000
    N2563    N        0.44888    0.28905    0.60560    1.000
    N2564    N        0.40681    0.27820    0.50664    1.000
    N2565    N        0.45724    0.37915    0.53454    1.000
    N2566    N        0.41696    0.39855    0.57586    1.000
    Si2567   Si       0.43361    0.48437    0.52780    1.000
    Si2568   Si       0.46010    0.39103    0.57671    1.000
    N2569    N        0.41655    0.34558    0.63248    1.000
    Si2570   Si       0.41193    0.33202    0.67435    1.000
    N2571    N        0.43767    0.34025    0.70828    1.000
    N2572    N        0.41213    0.28914    0.67143    1.000
    Si2573   Si       0.42392    0.26810    0.63487    1.000
    Si2574   Si       0.41977    0.26244    0.70853    1.000
    N2575    N        0.40670    0.42141    0.67479    1.000
    N2576    N        0.43505    0.47526    0.66079    1.000
    Si2577   Si       0.44807    0.43753    0.68212    1.000
    Si2578   Si       0.44252    0.48768    0.73956    1.000
    N2579    N        0.45126    0.44762    0.72591    1.000
    N2580    N        0.40092    0.49943    0.72932    1.000
    Si2581   Si       0.41134    0.34172    0.82560    1.000
    N2582    N        0.40720    0.33178    0.78391    1.000
    Si2583   Si       0.43269    0.34904    0.75227    1.000
    Si2584   Si       0.40573    0.28837    0.78207    1.000
    N2585    N        0.40981    0.37823    0.85124    1.000
    N2586    N        0.43227    0.26450    0.80641    1.000
    Si2587   Si       0.45011    0.36471    0.86784    1.000
    N2588    N        0.45451    0.33710    0.83251    1.000
    N2589    N        0.42934    0.38845    0.76231    1.000
    N2590    N        0.44021    0.47018    0.83665    1.000
    N2591    N        0.45042    0.49771    0.78008    1.000
    Si2592   Si       0.40256    0.47071    0.81336    1.000
    Si2593   Si       0.42066    0.35241    0.94303    1.000
    N2594    N        0.41999    0.31075    0.95676    1.000
    N2595    N        0.44235    0.28269    0.89646    1.000
    Si2596   Si       0.44586    0.29005    0.98494    1.000
    N2597    N        0.44934    0.34899    0.90942    1.000
    N2598    N        0.41965    0.37465    0.98165    1.000
    Si2599   Si       0.40382    0.27904    0.87888    1.000
    N2600    N        0.44569    0.47240    0.91781    1.000
    Si2601   Si       0.41038    0.46748    0.94064    1.000
    N2602    N        0.42743    0.44104    0.97138    1.000
    Si2603   Si       0.43754    0.49359    0.99035    1.000
    Si2604   Si       0.44047    0.48978    0.87745    1.000
    N2605    N        0.40294    0.50141    0.96771    1.000
    Si2606   Si       0.44900    0.61071    0.07317    1.000
    N2607    N        0.40792    0.60543    0.08139    1.000
    N2608    N        0.44134    0.72576    0.07285    1.000
    Si2609   Si       0.43281    0.65848    0.01824    1.000
    N2610    N        0.43052    0.70092    0.00930    1.000
    Si2611   Si       0.44289    0.73884    0.03074    1.000
    N2612    N        0.44767    0.65377    0.05868    1.000
    Si2613   Si       0.44168    0.75159    0.10878    1.000
    Si2614   Si       0.43978    0.54163    0.12484    1.000
    N2615    N        0.41865    0.61522    0.21080    1.000
    Si2616   Si       0.42418    0.51102    0.22449    1.000
    N2617    N        0.45573    0.56573    0.15938    1.000
    N2618    N        0.40502    0.54686    0.21173    1.000
    Si2619   Si       0.40194    0.58333    0.23590    1.000
    Si2620   Si       0.45147    0.68603    0.22093    1.000
    N2621    N        0.42829    0.67666    0.18626    1.000
    N2622    N        0.44285    0.73860    0.15187    1.000
    Si2623   Si       0.43025    0.69751    0.14950    1.000
    N2624    N        0.42673    0.58902    0.34570    1.000
    Si2625   Si       0.42281    0.60170    0.30561    1.000
    N2626    N        0.41188    0.57215    0.27765    1.000
    N2627    N        0.45234    0.63089    0.29198    1.000
    Si2628   Si       0.42157    0.66290    0.29155    1.000
    Si2629   Si       0.43193    0.71918    0.34242    1.000
    N2630    N        0.43027    0.68953    0.26084    1.000
    N2631    N        0.41148    0.68470    0.32810    1.000
    N2632    N        0.45614    0.73643    0.31027    1.000
    N2633    N        0.44976    0.55712    0.45597    1.000
    N2634    N        0.42283    0.60626    0.40975    1.000
    Si2635   Si       0.41530    0.56661    0.43080    1.000
    N2636    N        0.41127    0.54031    0.39591    1.000
    Si2637   Si       0.45311    0.60177    0.37791    1.000
    N2638    N        0.45517    0.63182    0.47978    1.000
    Si2639   Si       0.44566    0.56381    0.49925    1.000
    Si2640   Si       0.43767    0.73140    0.48805    1.000
    Si2641   Si       0.44055    0.74268    0.40908    1.000
    N2642    N        0.45151    0.70995    0.38115    1.000
    N2643    N        0.41352    0.66876    0.44597    1.000
    N2644    N        0.45559    0.74563    0.45111    1.000
    Si2645   Si       0.45267    0.66958    0.46081    1.000
    N2646    N        0.42904    0.58056    0.57210    1.000
    N2647    N        0.42422    0.51656    0.60465    1.000
    N2648    N        0.43816    0.52509    0.51270    1.000
    Si2649   Si       0.41965    0.62416    0.57759    1.000
    Si2650   Si       0.40455    0.55555    0.59690    1.000
    Si2651   Si       0.42159    0.62963    0.50763    1.000
    N2652    N        0.41030    0.59120    0.49939    1.000
    N2653    N        0.44964    0.75378    0.52714    1.000
    N2654    N        0.43847    0.64498    0.54419    1.000
    N2655    N        0.44546    0.64497    0.60625    1.000
    N2656    N        0.43133    0.71054    0.58332    1.000
    Si2657   Si       0.43464    0.75050    0.56895    1.000
    Si2658   Si       0.43654    0.68576    0.61852    1.000
    N2659    N        0.45796    0.69426    0.49733    1.000
    N2660    N        0.42622    0.61921    0.67546    1.000
    Si2661   Si       0.44250    0.51591    0.64828    1.000
    N2662    N        0.42793    0.54617    0.67932    1.000
    Si2663   Si       0.45520    0.55531    0.71167    1.000
    Si2664   Si       0.40232    0.58162    0.67240    1.000
    N2665    N        0.43794    0.72663    0.69955    1.000
    Si2666   Si       0.40819    0.70429    0.72095    1.000
    Si2667   Si       0.41928    0.59370    0.78092    1.000
    Si2668   Si       0.42502    0.59079    0.84976    1.000
    N2669    N        0.41110    0.61874    0.81709    1.000
    N2670    N        0.43627    0.56289    0.81491    1.000
    N2671    N        0.43592    0.62539    0.75892    1.000
    Si2672   Si       0.45388    0.53934    0.78381    1.000
    N2673    N        0.43359    0.56097    0.75108    1.000
    N2674    N        0.43837    0.68665    0.82379    1.000
    Si2675   Si       0.42094    0.71444    0.79597    1.000
    Si2676   Si       0.41496    0.65472    0.84232    1.000
    N2677    N        0.42626    0.69306    0.75770    1.000
    N2678    N        0.44496    0.75007    0.79310    1.000
    Si2679   Si       0.45668    0.66181    0.75063    1.000
    Si2680   Si       0.44169    0.56088    0.95714    1.000
    N2681    N        0.43316    0.54869    0.91648    1.000
    N2682    N        0.40599    0.57171    0.97695    1.000
    N2683    N        0.41852    0.63251    0.87827    1.000
    N2684    N        0.40543    0.63340    0.94526    1.000
    N2685    N        0.40471    0.69445    0.91195    1.000
    N2686    N        0.43522    0.74077    0.94893    1.000
    Si2687   Si       0.44592    0.70939    0.92101    1.000
    Si2688   Si       0.40986    0.72885    0.98256    1.000
    Si2689   Si       0.45043    0.63677    0.95065    1.000
    Si2690   Si       0.43335    0.84519    0.06358    1.000
    N2691    N        0.40776    0.81152    0.05767    1.000
    N2692    N        0.45318    0.86107    0.02626    1.000
    N2693    N        0.40758    0.87283    0.08610    1.000
    Si2694   Si       0.40328    0.80079    0.01607    1.000
    N2695    N        0.40016    0.76031    0.10694    1.000
    N2696    N        0.40829    0.75812    0.01410    1.000
    N2697    N        0.43171    0.97278    0.00811    1.000
    N2698    N        0.42302    0.96986    0.07320    1.000
    Si2699   Si       0.41814    0.99708    0.04053    1.000
    Si2700   Si       0.42610    0.90091    0.11485    1.000
    Si2701   Si       0.44561    0.77741    0.17101    1.000
    N2702    N        0.40985    0.78746    0.19088    1.000
    N2703    N        0.42539    0.87324    0.14689    1.000
    Si2704   Si       0.40360    0.81580    0.22224    1.000
    N2705    N        0.45411    0.80926    0.14106    1.000
    N2706    N        0.42400    0.90506    0.23451    1.000
    N2707    N        0.44526    0.94246    0.17848    1.000
    Si2708   Si       0.46014    0.92651    0.21807    1.000
    N2709    N        0.41709    0.80141    0.31282    1.000
    Si2710   Si       0.42121    0.79014    0.35324    1.000
    Si2711   Si       0.44776    0.82151    0.28988    1.000
    N2712    N        0.44095    0.82082    0.24723    1.000
    Si2713   Si       0.42049    0.88279    0.31360    1.000
    N2714    N        0.45506    0.85884    0.31137    1.000
    N2715    N        0.41537    0.89076    0.35580    1.000
    N2716    N        0.43218    0.92346    0.30382    1.000
    Si2717   Si       0.42110    0.93417    0.34644    1.000
    N2718    N        0.43494    0.99317    0.29568    1.000
    N2719    N        0.45599    0.95096    0.36189    1.000
    Si2720   Si       0.40357    0.92829    0.26777    1.000
    Si2721   Si       0.42839    0.99027    0.25204    1.000
    N2722    N        0.45878    0.95814    0.24901    1.000
    N2723    N        0.45545    0.85731    0.40835    1.000
    Si2724   Si       0.45177    0.83721    0.44992    1.000
    N2725    N        0.41608    0.84713    0.47154    1.000
    Si2726   Si       0.41670    0.86350    0.38903    1.000
    N2727    N        0.45070    0.77877    0.38411    1.000
    N2728    N        0.40753    0.78445    0.48300    1.000
    Si2729   Si       0.41067    0.88228    0.49511    1.000
    N2730    N        0.41146    0.94786    0.41246    1.000
    N2731    N        0.42789    0.91474    0.47049    1.000
    Si2732   Si       0.45294    0.95087    0.40475    1.000
    N2733    N        0.44176    0.82092    0.54539    1.000
    Si2734   Si       0.41347    0.81388    0.57741    1.000
    Si2735   Si       0.44235    0.79410    0.50843    1.000
    Si2736   Si       0.43565    0.87694    0.61399    1.000
    N2737    N        0.43197    0.83308    0.61121    1.000
    N2738    N        0.43438    0.88300    0.53043    1.000
    N2739    N        0.45443    0.94510    0.55602    1.000
    Si2740   Si       0.41944    0.91695    0.55370    1.000
    Si2741   Si       0.45082    0.96402    0.59454    1.000
    N2742    N        0.40827    0.97318    0.60134    1.000
    N2743    N        0.40680    0.90094    0.59232    1.000
    N2744    N        0.43558    0.98709    0.50440    1.000
    Si2745   Si       0.46040    0.80399    0.63066    1.000
    N2746    N        0.44359    0.78978    0.66749    1.000
    N2747    N        0.40707    0.79794    0.72640    1.000
    Si2748   Si       0.40726    0.80754    0.68295    1.000
    N2749    N        0.41285    0.88154    0.73040    1.000
    Si2750   Si       0.41462    0.88454    0.68714    1.000
    Si2751   Si       0.45749    0.00782    0.69357    1.000
    Si2752   Si       0.40209    0.99228    0.64025    1.000
    N2753    N        0.44262    0.88891    0.65455    1.000
    N2754    N        0.40115    0.96984    0.73648    1.000
    Si2755   Si       0.41923    0.95175    0.70144    1.000
    N2756    N        0.42682    0.98263    0.67354    1.000
    N2757    N        0.44178    0.80499    0.84460    1.000
    N2758    N        0.44273    0.82982    0.77373    1.000
    Si2759   Si       0.44433    0.79321    0.80174    1.000
    Si2760   Si       0.44434    0.87338    0.76063    1.000
    N2761    N        0.40871    0.88336    0.79120    1.000
    N2762    N        0.43753    0.88740    0.85300    1.000
    N2763    N        0.42871    0.94909    0.81980    1.000
    Si2764   Si       0.43652    0.90612    0.81496    1.000
    Si2765   Si       0.45670    0.98040    0.81603    1.000
    N2766    N        0.45772    0.99667    0.85794    1.000
    N2767    N        0.45199    0.00591    0.78091    1.000
    Si2768   Si       0.41820    0.00889    0.75183    1.000
    N2769    N        0.42926    0.81084    0.98061    1.000
    Si2770   Si       0.44311    0.85201    0.98651    1.000
    N2771    N        0.41099    0.87391    0.96772    1.000
    Si2772   Si       0.42772    0.78451    0.94407    1.000
    Si2773   Si       0.43217    0.99363    0.89495    1.000
    N2774    N        0.44715    0.98023    0.93522    1.000
    Si2775   Si       0.41336    0.90401    0.93730    1.000
    N2776    N        0.45217    0.90777    0.91815    1.000
    Si2777   Si       0.41551    0.97931    0.96912    1.000
    N2778    N        0.50138    0.06231    0.01683    1.000
    Si2779   Si       0.49363    0.02278    0.10600    1.000
    Si2780   Si       0.47069    0.03253    0.00860    1.000
    N2781    N        0.47007    0.05847    0.10314    1.000
    N2782    N        0.50692    0.11847    0.11932    1.000
    N2783    N        0.46834    0.17861    0.10402    1.000
    N2784    N        0.49947    0.19361    0.01419    1.000
    Si2785   Si       0.50624    0.15803    0.10018    1.000
    N2786    N        0.47098    0.24926    0.11120    1.000
    Si2787   Si       0.49175    0.23421    0.00201    1.000
    Si2788   Si       0.49849    0.25138    0.07768    1.000
    N2789    N        0.47541    0.24921    0.04166    1.000
    Si2790   Si       0.46481    0.16777    0.01072    1.000
    N2791    N        0.48135    0.07593    0.17188    1.000
    Si2792   Si       0.47464    0.09178    0.12849    1.000
    Si2793   Si       0.49987    0.03697    0.17317    1.000
    N2794    N        0.46131    0.01089    0.17208    1.000
    Si2795   Si       0.46169    0.21140    0.13389    1.000
    Si2796   Si       0.47357    0.20572    0.20949    1.000
    N2797    N        0.50075    0.23321    0.22804    1.000
    N2798    N        0.48633    0.20424    0.16814    1.000
    N2799    N        0.48974    0.06963    0.32640    1.000
    N2800    N        0.47237    0.12265    0.27354    1.000
    Si2801   Si       0.47721    0.05379    0.36674    1.000
    Si2802   Si       0.45997    0.09611    0.30569    1.000
    N2803    N        0.47967    0.20486    0.33839    1.000
    Si2804   Si       0.49030    0.21636    0.29771    1.000
    Si2805   Si       0.50570    0.17390    0.35440    1.000
    N2806    N        0.50318    0.18552    0.27138    1.000
    Si2807   Si       0.50769    0.14331    0.28196    1.000
    N2808    N        0.51488    0.14055    0.32541    1.000
    Si2809   Si       0.46490    0.22958    0.37146    1.000
    Si2810   Si       0.50319    0.08106    0.47015    1.000
    N2811    N        0.48924    0.11456    0.44753    1.000
    Si2812   Si       0.49520    0.11818    0.40511    1.000
    Si2813   Si       0.49405    0.01912    0.43529    1.000
    N2814    N        0.48079    0.04195    0.46868    1.000
    N2815    N        0.50107    0.04239    0.40164    1.000
    N2816    N        0.46502    0.09133    0.38639    1.000
    Si2817   Si       0.46952    0.14458    0.47202    1.000
    N2818    N        0.49506    0.24272    0.40205    1.000
    N2819    N        0.48561    0.15859    0.38951    1.000
    N2820    N        0.45727    0.18056    0.45031    1.000
    Si2821   Si       0.48722    0.11397    0.53599    1.000
    Si2822   Si       0.49854    0.10001    0.60821    1.000
    Si2823   Si       0.48633    0.01964    0.55794    1.000
    N2824    N        0.51180    0.12227    0.57245    1.000
    N2825    N        0.46590    0.07067    0.60075    1.000
    N2826    N        0.51058    0.08524    0.51343    1.000
    N2827    N        0.49843    0.24469    0.59175    1.000
    N2828    N        0.48838    0.14870    0.51165    1.000
    Si2829   Si       0.47789    0.21495    0.61266    1.000
    Si2830   Si       0.50184    0.18937    0.52199    1.000
    N2831    N        0.46017    0.20612    0.51726    1.000
    Si2832   Si       0.46305    0.03251    0.62534    1.000
    N2833    N        0.48226    0.02548    0.66368    1.000
    N2834    N        0.48400    0.12629    0.64037    1.000
    N2835    N        0.46050    0.09421    0.69649    1.000
    N2836    N        0.49340    0.19261    0.64498    1.000
    Si2837   Si       0.46031    0.20422    0.67412    1.000
    Si2838   Si       0.48229    0.24359    0.73524    1.000
    Si2839   Si       0.51419    0.15660    0.65283    1.000
    N2840    N        0.48755    0.21390    0.70682    1.000
    Si2841   Si       0.49176    0.10135    0.83824    1.000
    Si2842   Si       0.48879    0.01731    0.76065    1.000
    N2843    N        0.46814    0.06482    0.84803    1.000
    Si2844   Si       0.48326    0.02973    0.86963    1.000
    N2845    N        0.48954    0.06271    0.75352    1.000
    N2846    N        0.48186    0.23734    0.85655    1.000
    Si2847   Si       0.47134    0.18808    0.78741    1.000
    N2848    N        0.48484    0.22804    0.77839    1.000
    N2849    N        0.50602    0.16747    0.80276    1.000
    Si2850   Si       0.47403    0.25189    0.81609    1.000
    N2851    N        0.50167    0.12038    0.87614    1.000
    N2852    N        0.50061    0.02501    0.91795    1.000
    N2853    N        0.50191    0.09101    0.94574    1.000
    Si2854   Si       0.50076    0.12722    0.91977    1.000
    Si2855   Si       0.50531    0.09741    0.99062    1.000
    Si2856   Si       0.46193    0.02220    0.93918    1.000
    Si2857   Si       0.46195    0.24484    0.89538    1.000
    N2858    N        0.50511    0.24710    0.91504    1.000
    N2859    N        0.47668    0.13060    0.99698    1.000
    Si2860   Si       0.47644    0.31624    0.05701    1.000
    N2861    N        0.50971    0.29384    0.07277    1.000
    N2862    N        0.46825    0.35703    0.06929    1.000
    N2863    N        0.46292    0.32236    0.01324    1.000
    N2864    N        0.47052    0.44071    0.06921    1.000
    Si2865   Si       0.48400    0.39759    0.05626    1.000
    Si2866   Si       0.49234    0.42519    0.10586    1.000
    Si2867   Si       0.50150    0.49858    0.10378    1.000
    N2868    N        0.46785    0.39747    0.01672    1.000
    N2869    N        0.47976    0.47076    0.00119    1.000
    Si2870   Si       0.46755    0.47653    0.04417    1.000
    N2871    N        0.46716    0.39527    0.12503    1.000
    N2872    N        0.51908    0.39933    0.08079    1.000
    N2873    N        0.47671    0.32079    0.12886    1.000
    N2874    N        0.47960    0.34488    0.22715    1.000
    N2875    N        0.48855    0.29254    0.18904    1.000
    Si2876   Si       0.50685    0.31871    0.15880    1.000
    Si2877   Si       0.51072    0.27448    0.22187    1.000
    N2878    N        0.51716    0.35937    0.17173    1.000
    Si2879   Si       0.49151    0.37769    0.20078    1.000
    N2880    N        0.48359    0.46500    0.18453    1.000
    N2881    N        0.51486    0.45881    0.11835    1.000
    N2882    N        0.50961    0.41164    0.22092    1.000
    Si2883   Si       0.51618    0.48939    0.19271    1.000
    Si2884   Si       0.47200    0.43527    0.21530    1.000
    N2885    N        0.46472    0.50669    0.12568    1.000
    N2886    N        0.47247    0.34692    0.29674    1.000
    Si2887   Si       0.47849    0.32081    0.26304    1.000
    Si2888   Si       0.50934    0.36569    0.30689    1.000
    N2889    N        0.51494    0.29681    0.26002    1.000
    N2890    N        0.46204    0.26925    0.35509    1.000
    N2891    N        0.51225    0.38925    0.34253    1.000
    N2892    N        0.47774    0.48941    0.28984    1.000
    N2893    N        0.47931    0.46343    0.35639    1.000
    Si2894   Si       0.50476    0.48247    0.32532    1.000
    Si2895   Si       0.48122    0.30619    0.37567    1.000
    Si2896   Si       0.48482    0.26520    0.43680    1.000
    N2897    N        0.47141    0.30214    0.41886    1.000
    N2898    N        0.51146    0.36543    0.48104    1.000
    N2899    N        0.49301    0.37568    0.40614    1.000
    N2900    N        0.50823    0.26396    0.47415    1.000
    Si2901   Si       0.47034    0.36898    0.49663    1.000
    N2902    N        0.51584    0.46078    0.48559    1.000
    Si2903   Si       0.50127    0.39017    0.44680    1.000
    N2904    N        0.48886    0.45546    0.42953    1.000
    Si2905   Si       0.47445    0.47986    0.39702    1.000
    Si2906   Si       0.47650    0.45087    0.47163    1.000
    N2907    N        0.46527    0.40671    0.47097    1.000
    N2908    N        0.47398    0.35331    0.59304    1.000
    Si2909   Si       0.48621    0.28562    0.58269    1.000
    N2910    N        0.47472    0.28987    0.54029    1.000
    Si2911   Si       0.50916    0.28123    0.51419    1.000
    Si2912   Si       0.51773    0.35232    0.59059    1.000
    N2913    N        0.52294    0.30963    0.59171    1.000
    Si2914   Si       0.49946    0.45340    0.57046    1.000
    N2915    N        0.48647    0.42158    0.59472    1.000
    N2916    N        0.46214    0.47490    0.55941    1.000
    N2917    N        0.51572    0.48939    0.59083    1.000
    Si2918   Si       0.47429    0.31405    0.72036    1.000
    N2919    N        0.51276    0.31577    0.70188    1.000
    N2920    N        0.45959    0.27407    0.71791    1.000
    Si2921   Si       0.50941    0.41563    0.63004    1.000
    Si2922   Si       0.51535    0.40620    0.69885    1.000
    N2923    N        0.48398    0.41708    0.66777    1.000
    N2924    N        0.49468    0.39405    0.73444    1.000
    Si2925   Si       0.48363    0.32696    0.80170    1.000
    N2926    N        0.49937    0.28759    0.81294    1.000
    N2927    N        0.46728    0.32405    0.76220    1.000
    N2928    N        0.50783    0.36430    0.79858    1.000
    N2929    N        0.47774    0.43026    0.79227    1.000
    Si2930   Si       0.47203    0.47186    0.80785    1.000
    N2931    N        0.50829    0.48988    0.82251    1.000
    Si2932   Si       0.50564    0.48951    0.86471    1.000
    N2933    N        0.47790    0.39427    0.85740    1.000
    Si2934   Si       0.49555    0.40037    0.81799    1.000
    Si2935   Si       0.46253    0.41536    0.75296    1.000
    Si2936   Si       0.50061    0.32761    0.98900    1.000
    N2937    N        0.48624    0.30287    0.95596    1.000
    N2938    N        0.50174    0.31318    0.89156    1.000
    Si2939   Si       0.46710    0.31088    0.91592    1.000
    Si2940   Si       0.49901    0.50710    0.98060    1.000
    Si2941   Si       0.51320    0.41457    0.87543    1.000
    N2942    N        0.49917    0.45294    0.88564    1.000
    N2943    N        0.48940    0.42341    0.95155    1.000
    Si2944   Si       0.48641    0.45982    0.92672    1.000
    N2945    N        0.51284    0.49228    0.94170    1.000
    Si2946   Si       0.46514    0.42905    0.98707    1.000
    Si2947   Si       0.48362    0.55676    0.06008    1.000
    Si2948   Si       0.49320    0.61722    0.01120    1.000
    N2949    N        0.48952    0.62544    0.09950    1.000
    N2950    N        0.46949    0.59190    0.03715    1.000
    N2951    N        0.46367    0.56905    0.09809    1.000
    N2952    N        0.48997    0.51087    0.06196    1.000
    Si2953   Si       0.46192    0.68929    0.07969    1.000
    N2954    N        0.50351    0.70151    0.06976    1.000
    N2955    N        0.51970    0.64074    0.03847    1.000
    Si2956   Si       0.47635    0.54922    0.19208    1.000
    N2957    N        0.46595    0.52140    0.22535    1.000
    N2958    N        0.51021    0.52823    0.17626    1.000
    Si2959   Si       0.48191    0.59201    0.13238    1.000
    N2960    N        0.48135    0.58418    0.21805    1.000
    N2961    N        0.47354    0.62637    0.16133    1.000
    Si2962   Si       0.46020    0.61915    0.20106    1.000
    Si2963   Si       0.50365    0.75077    0.21177    1.000
    N2964    N        0.46114    0.68378    0.12273    1.000
    Si2965   Si       0.49121    0.65489    0.13390    1.000
    N2966    N        0.47360    0.72252    0.23073    1.000
    N2967    N        0.47488    0.65010    0.22781    1.000
    N2968    N        0.50747    0.55054    0.26989    1.000
    N2969    N        0.50833    0.58426    0.34060    1.000
    Si2970   Si       0.49623    0.51059    0.25619    1.000
    Si2971   Si       0.51566    0.62375    0.36025    1.000
    N2972    N        0.51349    0.52148    0.33714    1.000
    Si2973   Si       0.48738    0.64378    0.27006    1.000
    N2974    N        0.49722    0.68228    0.28610    1.000
    Si2975   Si       0.46792    0.71443    0.27355    1.000
    N2976    N        0.47630    0.63771    0.36969    1.000
    Si2977   Si       0.50846    0.55087    0.37075    1.000
    N2978    N        0.48129    0.57371    0.39583    1.000
    N2979    N        0.49823    0.51528    0.40491    1.000
    Si2980   Si       0.48442    0.54970    0.43227    1.000
    N2981    N        0.51898    0.61449    0.46661    1.000
    N2982    N        0.50763    0.75349    0.49235    1.000
    Si2983   Si       0.47778    0.67781    0.39056    1.000
    N2984    N        0.48442    0.66604    0.43204    1.000
    N2985    N        0.48384    0.53653    0.56382    1.000
    N2986    N        0.47753    0.58682    0.52011    1.000
    N2987    N        0.49118    0.59535    0.59822    1.000
    Si2988   Si       0.47205    0.57797    0.56248    1.000
    Si2989   Si       0.50782    0.55863    0.61856    1.000
    Si2990   Si       0.49218    0.62175    0.49949    1.000
    Si2991   Si       0.46721    0.50690    0.59060    1.000
    Si2992   Si       0.48719    0.63467    0.61344    1.000
    Si2993   Si       0.50031    0.70275    0.60424    1.000
    Si2994   Si       0.49198    0.74235    0.53111    1.000
    N2995    N        0.50397    0.65412    0.52708    1.000
    N2996    N        0.49353    0.70759    0.55750    1.000
    Si2997   Si       0.46823    0.67695    0.53794    1.000
    N2998    N        0.51522    0.66310    0.59509    1.000
    N2999    N        0.48001    0.52798    0.63076    1.000
    N3000    N        0.48058    0.59083    0.70908    1.000
    N3001    N        0.47247    0.51654    0.72272    1.000
    Si3002   Si       0.46638    0.62758    0.68795    1.000
    Si3003   Si       0.50927    0.52209    0.74333    1.000
    N3004    N        0.49596    0.63048    0.65516    1.000
    N3005    N        0.49829    0.74067    0.69223    1.000
    Si3006   Si       0.47333    0.70487    0.68235    1.000
    N3007    N        0.47293    0.70152    0.63937    1.000
    N3008    N        0.46892    0.66851    0.70725    1.000
    N3009    N        0.49517    0.54749    0.77665    1.000
    Si3010   Si       0.49866    0.61640    0.86416    1.000
    N3011    N        0.46583    0.58801    0.86848    1.000
    N3012    N        0.49999    0.72472    0.82511    1.000
    Si3013   Si       0.48353    0.68428    0.82377    1.000
    N3014    N        0.49258    0.65943    0.85858    1.000
    N3015    N        0.48808    0.66864    0.78204    1.000
    Si3016   Si       0.49091    0.74859    0.79013    1.000
    Si3017   Si       0.50702    0.74162    0.86594    1.000
    N3018    N        0.47346    0.51620    0.87347    1.000
    Si3019   Si       0.50847    0.59529    0.94097    1.000
    N3020    N        0.50911    0.55631    0.91684    1.000
    Si3021   Si       0.47191    0.55280    0.89491    1.000
    N3022    N        0.46523    0.59557    0.94604    1.000
    N3023    N        0.51572    0.62449    0.90814    1.000
    N3024    N        0.46284    0.53077    0.98017    1.000
    N3025    N        0.46464    0.66950    0.92656    1.000
    N3026    N        0.47760    0.71926    0.89220    1.000
    N3027    N        0.46192    0.64101    0.99109    1.000
    Si3028   Si       0.49868    0.67497    0.89882    1.000
    Si3029   Si       0.49323    0.85594    0.04501    1.000
    Si3030   Si       0.48639    0.80638    0.11002    1.000
    N3031    N        0.47272    0.83414    0.07975    1.000
    N3032    N        0.48326    0.76433    0.10378    1.000
    N3033    N        0.51204    0.82234    0.02136    1.000
    Si3034   Si       0.51518    0.77874    0.02853    1.000
    N3035    N        0.47843    0.75926    0.02325    1.000
    Si3036   Si       0.50371    0.90256    0.10989    1.000
    N3037    N        0.48316    0.94589    0.04522    1.000
    Si3038   Si       0.47339    0.96122    0.00575    1.000
    N3039    N        0.46385    0.91670    0.10269    1.000
    N3040    N        0.48067    0.98164    0.11447    1.000
    Si3041   Si       0.46325    0.95542    0.08278    1.000
    Si3042   Si       0.51755    0.91941    0.04022    1.000
    N3043    N        0.51823    0.88568    0.07165    1.000
    N3044    N        0.49543    0.00015    0.99469    1.000
    Si3045   Si       0.51043    0.86872    0.21164    1.000
    N3046    N        0.47944    0.78266    0.19819    1.000
    N3047    N        0.47320    0.85124    0.19588    1.000
    Si3048   Si       0.47686    0.81713    0.22333    1.000
    N3049    N        0.49584    0.87129    0.13842    1.000
    Si3050   Si       0.46203    0.85136    0.15446    1.000
    N3051    N        0.50897    0.83753    0.24360    1.000
    N3052    N        0.50066    0.91018    0.21560    1.000
    Si3053   Si       0.46968    0.97120    0.15645    1.000
    N3054    N        0.51042    0.96373    0.17122    1.000
    N3055    N        0.48683    0.80516    0.29942    1.000
    Si3056   Si       0.49274    0.86066    0.33322    1.000
    Si3057   Si       0.49150    0.76429    0.31430    1.000
    N3058    N        0.50692    0.83095    0.36387    1.000
    N3059    N        0.50784    0.76318    0.35488    1.000
    N3060    N        0.49455    0.89619    0.35898    1.000
    Si3061   Si       0.49500    0.93924    0.34920    1.000
    N3062    N        0.49967    0.95888    0.31079    1.000
    Si3063   Si       0.46148    0.95682    0.29245    1.000
    N3064    N        0.47097    0.80737    0.47841    1.000
    N3065    N        0.50696    0.78342    0.42130    1.000
    Si3066   Si       0.49149    0.79438    0.38273    1.000
    N3067    N        0.48093    0.86718    0.46722    1.000
    Si3068   Si       0.48797    0.77199    0.45899    1.000
    Si3069   Si       0.50265    0.83790    0.49099    1.000
    Si3070   Si       0.49216    0.88226    0.40244    1.000
    N3071    N        0.48882    0.92946    0.49620    1.000
    Si3072   Si       0.47085    0.90840    0.46604    1.000
    N3073    N        0.47106    0.98431    0.42446    1.000
    N3074    N        0.48171    0.92122    0.42316    1.000
    Si3075   Si       0.51007    0.95852    0.42289    1.000
    N3076    N        0.50151    0.85351    0.53206    1.000
    Si3077   Si       0.50337    0.77519    0.59689    1.000
    Si3078   Si       0.46317    0.85842    0.55123    1.000
    N3079    N        0.46031    0.77189    0.59957    1.000
    N3080    N        0.51044    0.77503    0.55434    1.000
    N3081    N        0.47314    0.87981    0.58741    1.000
    Si3082   Si       0.46842    0.95994    0.51870    1.000
    N3083    N        0.49895    0.99083    0.52692    1.000
    Si3084   Si       0.50765    0.89602    0.61000    1.000
    N3085    N        0.46756    0.00341    0.59342    1.000
    N3086    N        0.50451    0.80974    0.62457    1.000
    N3087    N        0.48313    0.78860    0.72744    1.000
    N3088    N        0.47370    0.86075    0.72962    1.000
    Si3089   Si       0.51097    0.88151    0.73581    1.000
    Si3090   Si       0.46044    0.76479    0.70172    1.000
    Si3091   Si       0.51929    0.76511    0.72160    1.000
    Si3092   Si       0.49722    0.95464    0.71192    1.000
    N3093    N        0.46015    0.93549    0.69893    1.000
    N3094    N        0.48463    0.99341    0.72390    1.000
    Si3095   Si       0.47440    0.91905    0.66107    1.000
    N3096    N        0.47320    0.94526    0.62722    1.000
    N3097    N        0.50902    0.89523    0.65373    1.000
    N3098    N        0.51107    0.92576    0.74199    1.000
    Si3099   Si       0.51312    0.96383    0.63068    1.000
    N3100    N        0.51843    0.96660    0.67413    1.000
    N3101    N        0.49225    0.79165    0.79166    1.000
    Si3102   Si       0.48417    0.82194    0.75754    1.000
    N3103    N        0.50340    0.78385    0.86286    1.000
    N3104    N        0.46759    0.89916    0.78754    1.000
    N3105    N        0.49776    0.96242    0.80926    1.000
    Si3106   Si       0.50519    0.92621    0.78580    1.000
    N3107    N        0.48450    0.84497    0.89093    1.000
    N3108    N        0.47827    0.85935    0.96101    1.000
    Si3109   Si       0.49025    0.82939    0.93241    1.000
    Si3110   Si       0.46822    0.80514    0.87800    1.000
    N3111    N        0.46237    0.79789    0.92178    1.000
    N3112    N        0.48309    0.93029    0.97577    1.000
    Si3113   Si       0.47310    0.94246    0.93523    1.000
    N3114    N        0.50494    0.89972    0.87390    1.000
    Si3115   Si       0.50539    0.89158    0.97181    1.000
    Si3116   Si       0.46663    0.88487    0.88363    1.000
    N3117    N        0.50933    0.95333    0.91512    1.000
    N3118    N        0.55746    0.08355    0.05789    1.000
    Si3119   Si       0.55642    0.12437    0.04138    1.000
    Si3120   Si       0.53236    0.05138    0.04566    1.000
    N3121    N        0.56072    0.01873    0.02326    1.000
    N3122    N        0.51953    0.01792    0.07177    1.000
    N3123    N        0.54777    0.11210    0.99736    1.000
    Si3124   Si       0.53132    0.19287    0.04317    1.000
    Si3125   Si       0.55613    0.21101    0.11165    1.000
    N3126    N        0.53036    0.15285    0.06290    1.000
    N3127    N        0.52865    0.21913    0.07945    1.000
    N3128    N        0.56832    0.20767    0.02646    1.000
    Si3129   Si       0.56764    0.24791    0.01128    1.000
    Si3130   Si       0.53926    0.01275    0.23813    1.000
    Si3131   Si       0.55957    0.07230    0.19815    1.000
    N3132    N        0.55007    0.11271    0.18171    1.000
    Si3133   Si       0.56751    0.02577    0.14307    1.000
    N3134    N        0.52824    0.03762    0.20481    1.000
    Si3135   Si       0.54451    0.12396    0.14050    1.000
    N3136    N        0.52405    0.02384    0.13922    1.000
    N3137    N        0.57605    0.07856    0.23771    1.000
    Si3138   Si       0.52727    0.19729    0.16558    1.000
    Si3139   Si       0.55463    0.14168    0.21308    1.000
    N3140    N        0.53745    0.17286    0.12936    1.000
    N3141    N        0.53354    0.17812    0.20471    1.000
    Si3142   Si       0.53171    0.20381    0.24192    1.000
    N3143    N        0.55104    0.23079    0.15029    1.000
    N3144    N        0.54857    0.08684    0.30709    1.000
    Si3145   Si       0.54019    0.11113    0.34240    1.000
    N3146    N        0.53867    0.01917    0.33504    1.000
    Si3147   Si       0.56831    0.10351    0.27141    1.000
    Si3148   Si       0.52471    0.05158    0.30737    1.000
    N3149    N        0.52068    0.02190    0.27625    1.000
    Si3150   Si       0.57080    0.01536    0.36250    1.000
    N3151    N        0.54337    0.13667    0.25580    1.000
    Si3152   Si       0.56574    0.24384    0.32533    1.000
    N3153    N        0.52808    0.23361    0.30512    1.000
    N3154    N        0.54263    0.19603    0.36617    1.000
    N3155    N        0.57546    0.13804    0.35477    1.000
    N3156    N        0.57271    0.20232    0.25205    1.000
    N3157    N        0.56444    0.25733    0.36816    1.000
    N3158    N        0.56739    0.12741    0.48440    1.000
    N3159    N        0.53237    0.10371    0.38498    1.000
    Si3160   Si       0.53777    0.06476    0.40738    1.000
    N3161    N        0.54198    0.07185    0.44925    1.000
    N3162    N        0.57334    0.04682    0.39108    1.000
    N3163    N        0.54986    0.22894    0.42851    1.000
    Si3164   Si       0.53489    0.23368    0.38921    1.000
    Si3165   Si       0.55354    0.16648    0.47055    1.000
    N3166    N        0.55423    0.16114    0.42637    1.000
    N3167    N        0.52608    0.19577    0.48814    1.000
    Si3168   Si       0.56556    0.13142    0.39807    1.000
    Si3169   Si       0.54152    0.23459    0.47333    1.000
    Si3170   Si       0.54244    0.05961    0.52934    1.000
    Si3171   Si       0.54323    0.04038    0.60101    1.000
    N3172    N        0.55928    0.02424    0.50878    1.000
    N3173    N        0.52118    0.04267    0.56315    1.000
    N3174    N        0.56128    0.23865    0.60607    1.000
    Si3175   Si       0.54157    0.15101    0.58126    1.000
    Si3176   Si       0.53592    0.22719    0.57271    1.000
    N3177    N        0.53655    0.25364    0.53819    1.000
    N3178    N        0.52347    0.18720    0.56086    1.000
    N3179    N        0.53423    0.07855    0.61897    1.000
    N3180    N        0.56348    0.02716    0.67887    1.000
    Si3181   Si       0.55909    0.10706    0.64002    1.000
    N3182    N        0.55918    0.10269    0.68390    1.000
    N3183    N        0.56124    0.06163    0.74302    1.000
    Si3184   Si       0.52362    0.01107    0.66499    1.000
    Si3185   Si       0.57382    0.06500    0.69942    1.000
    Si3186   Si       0.55613    0.13471    0.71436    1.000
    Si3187   Si       0.57188    0.23915    0.64775    1.000
    N3188    N        0.53476    0.16281    0.68913    1.000
    N3189    N        0.55421    0.23127    0.68610    1.000
    N3190    N        0.54668    0.14653    0.62559    1.000
    Si3191   Si       0.52920    0.20245    0.70657    1.000
    N3192    N        0.52411    0.25811    0.73679    1.000
    Si3193   Si       0.52458    0.08197    0.76274    1.000
    Si3194   Si       0.56942    0.02613    0.76512    1.000
    N3195    N        0.52315    0.02140    0.85063    1.000
    N3196    N        0.57260    0.13025    0.86395    1.000
    N3197    N        0.52958    0.01586    0.78031    1.000
    N3198    N        0.53168    0.12269    0.75154    1.000
    N3199    N        0.51873    0.09507    0.80543    1.000
    Si3200   Si       0.53448    0.13684    0.79187    1.000
    N3201    N        0.55112    0.24516    0.80103    1.000
    Si3202   Si       0.52751    0.23026    0.76934    1.000
    N3203    N        0.57402    0.15029    0.79929    1.000
    N3204    N        0.54535    0.19596    0.74856    1.000
    Si3205   Si       0.55778    0.03332    0.87270    1.000
    N3206    N        0.54671    0.04903    0.96715    1.000
    N3207    N        0.55042    0.06787    0.90024    1.000
    Si3208   Si       0.52543    0.05877    0.93112    1.000
    Si3209   Si       0.53727    0.01262    0.98605    1.000
    Si3210   Si       0.57724    0.07769    0.98202    1.000
    N3211    N        0.52825    0.25458    0.99004    1.000
    Si3212   Si       0.56110    0.15994    0.89414    1.000
    N3213    N        0.53738    0.19522    0.88228    1.000
    Si3214   Si       0.56336    0.13684    0.96340    1.000
    N3215    N        0.53908    0.14654    0.92836    1.000
    Si3216   Si       0.52207    0.23445    0.87685    1.000
    Si3217   Si       0.54699    0.30520    0.05476    1.000
    N3218    N        0.56058    0.33758    0.08181    1.000
    N3219    N        0.53260    0.32302    0.01876    1.000
    Si3220   Si       0.55353    0.35658    0.00414    1.000
    Si3221   Si       0.57074    0.31999    0.11948    1.000
    N3222    N        0.57386    0.27123    0.05065    1.000
    Si3223   Si       0.55754    0.38041    0.07182    1.000
    N3224    N        0.56360    0.38992    0.02927    1.000
    N3225    N        0.54134    0.29767    0.14428    1.000
    Si3226   Si       0.56515    0.26828    0.16590    1.000
    N3227    N        0.55211    0.27004    0.21001    1.000
    Si3228   Si       0.55690    0.37483    0.17303    1.000
    N3229    N        0.52706    0.48951    0.23435    1.000
    N3230    N        0.56524    0.37631    0.21708    1.000
    N3231    N        0.55462    0.47785    0.17631    1.000
    Si3232   Si       0.55451    0.45361    0.13886    1.000
    N3233    N        0.56458    0.41402    0.15263    1.000
    Si3234   Si       0.54594    0.40831    0.24391    1.000
    Si3235   Si       0.55421    0.30745    0.27407    1.000
    Si3236   Si       0.55319    0.31216    0.33852    1.000
    N3237    N        0.54114    0.33795    0.30474    1.000
    N3238    N        0.56908    0.28326    0.30757    1.000
    N3239    N        0.52312    0.32191    0.36668    1.000
    N3240    N        0.52785    0.40071    0.28413    1.000
    Si3241   Si       0.53908    0.41559    0.32452    1.000
    N3242    N        0.54241    0.45832    0.32705    1.000
    N3243    N        0.57172    0.50234    0.28198    1.000
    N3244    N        0.57522    0.39944    0.33905    1.000
    N3245    N        0.57613    0.44104    0.24810    1.000
    Si3246   Si       0.56789    0.48501    0.24306    1.000
    N3247    N        0.57273    0.26318    0.48034    1.000
    N3248    N        0.56285    0.36448    0.40192    1.000
    Si3249   Si       0.52570    0.36505    0.37950    1.000
    N3250    N        0.55870    0.49045    0.44018    1.000
    N3251    N        0.53902    0.41369    0.44205    1.000
    Si3252   Si       0.57681    0.39637    0.42833    1.000
    Si3253   Si       0.53085    0.45729    0.44493    1.000
    Si3254   Si       0.53966    0.35437    0.51465    1.000
    N3255    N        0.54057    0.31222    0.51586    1.000
    Si3256   Si       0.55009    0.28209    0.60843    1.000
    N3257    N        0.52856    0.36989    0.55392    1.000
    Si3258   Si       0.56856    0.27828    0.52046    1.000
    N3259    N        0.57181    0.38384    0.51343    1.000
    N3260    N        0.53187    0.44405    0.54606    1.000
    Si3261   Si       0.55424    0.40623    0.54916    1.000
    Si3262   Si       0.54755    0.46965    0.51454    1.000
    Si3263   Si       0.54715    0.48910    0.62218    1.000
    N3264    N        0.53150    0.37904    0.62060    1.000
    N3265    N        0.54750    0.28115    0.65253    1.000
    Si3266   Si       0.54170    0.27307    0.69857    1.000
    Si3267   Si       0.54973    0.34019    0.70497    1.000
    Si3268   Si       0.56627    0.37505    0.64681    1.000
    N3269    N        0.54556    0.37939    0.68570    1.000
    N3270    N        0.57442    0.30289    0.70348    1.000
    Si3271   Si       0.55806    0.46116    0.67907    1.000
    N3272    N        0.53577    0.44358    0.71091    1.000
    N3273    N        0.53955    0.44716    0.63850    1.000
    N3274    N        0.55080    0.50262    0.66302    1.000
    Si3275   Si       0.55180    0.45280    0.75149    1.000
    Si3276   Si       0.54063    0.27916    0.82391    1.000
    N3277    N        0.56227    0.31601    0.81711    1.000
    N3278    N        0.54975    0.26954    0.86513    1.000
    N3279    N        0.55334    0.35241    0.74640    1.000
    Si3280   Si       0.57458    0.33621    0.77963    1.000
    Si3281   Si       0.52439    0.38095    0.76272    1.000
    N3282    N        0.53374    0.49082    0.76032    1.000
    N3283    N        0.54851    0.41574    0.77587    1.000
    N3284    N        0.53470    0.41521    0.83880    1.000
    Si3285   Si       0.56970    0.40831    0.81289    1.000
    Si3286   Si       0.54218    0.50299    0.80068    1.000
    Si3287   Si       0.51851    0.27072    0.94904    1.000
    Si3288   Si       0.57232    0.37759    0.89513    1.000
    N3289    N        0.55666    0.28865    0.93256    1.000
    N3290    N        0.56759    0.33619    0.88163    1.000
    N3291    N        0.52195    0.36394    0.97547    1.000
    Si3292   Si       0.54390    0.30529    0.89280    1.000
    N3293    N        0.53347    0.39356    0.90691    1.000
    Si3294   Si       0.51905    0.39350    0.94533    1.000
    Si3295   Si       0.54905    0.55027    0.03305    1.000
    N3296    N        0.55791    0.62607    0.09217    1.000
    N3297    N        0.53799    0.52250    0.11013    1.000
    N3298    N        0.52372    0.57341    0.05783    1.000
    N3299    N        0.53169    0.52754    0.99915    1.000
    Si3300   Si       0.52176    0.61351    0.07199    1.000
    N3301    N        0.57407    0.52294    0.05316    1.000
    N3302    N        0.57802    0.56936    0.00324    1.000
    Si3303   Si       0.52714    0.68375    0.03902    1.000
    N3304    N        0.56691    0.68709    0.05418    1.000
    N3305    N        0.52211    0.69853    0.99843    1.000
    N3306    N        0.54390    0.73434    0.12226    1.000
    Si3307   Si       0.51710    0.73800    0.08951    1.000
    N3308    N        0.52431    0.58650    0.13768    1.000
    Si3309   Si       0.53689    0.54654    0.14612    1.000
    Si3310   Si       0.54883    0.62299    0.13434    1.000
    N3311    N        0.54867    0.57921    0.21416    1.000
    N3312    N        0.57522    0.54386    0.16286    1.000
    Si3313   Si       0.51608    0.58346    0.24270    1.000
    Si3314   Si       0.55011    0.70240    0.15214    1.000
    N3315    N        0.53192    0.72693    0.18666    1.000
    N3316    N        0.53109    0.66256    0.14345    1.000
    Si3317   Si       0.56458    0.75195    0.19994    1.000
    N3318    N        0.56190    0.57184    0.30503    1.000
    Si3319   Si       0.55591    0.61397    0.29528    1.000
    Si3320   Si       0.52193    0.55784    0.30977    1.000
    N3321    N        0.52170    0.61541    0.27053    1.000
    N3322    N        0.54680    0.63891    0.32901    1.000
    N3323    N        0.55805    0.71170    0.33224    1.000
    Si3324   Si       0.53544    0.70233    0.29319    1.000
    N3325    N        0.56207    0.68667    0.26479    1.000
    Si3326   Si       0.53136    0.72897    0.36448    1.000
    Si3327   Si       0.57154    0.67083    0.34282    1.000
    N3328    N        0.51829    0.74244    0.28856    1.000
    N3329    N        0.54966    0.55447    0.39015    1.000
    Si3330   Si       0.54637    0.58177    0.47252    1.000
    N3331    N        0.53523    0.62175    0.40025    1.000
    Si3332   Si       0.56680    0.59215    0.40125    1.000
    Si3333   Si       0.53905    0.52429    0.42357    1.000
    N3334    N        0.52136    0.55132    0.45427    1.000
    Si3335   Si       0.55414    0.69057    0.40581    1.000
    N3336    N        0.54965    0.67669    0.44609    1.000
    N3337    N        0.55572    0.73436    0.40044    1.000
    N3338    N        0.51748    0.69005    0.38157    1.000
    Si3339   Si       0.52101    0.64454    0.43645    1.000
    Si3340   Si       0.57367    0.67939    0.48428    1.000
    N3341    N        0.54194    0.54776    0.59148    1.000
    Si3342   Si       0.52551    0.52179    0.56278    1.000
    N3343    N        0.56510    0.58006    0.51075    1.000
    N3344    N        0.54875    0.51109    0.52990    1.000
    N3345    N        0.56213    0.64009    0.55688    1.000
    N3346    N        0.52028    0.73986    0.61372    1.000
    Si3347   Si       0.56313    0.65929    0.59809    1.000
    N3348    N        0.55499    0.69806    0.51728    1.000
    Si3349   Si       0.53185    0.67588    0.55161    1.000
    N3350    N        0.56049    0.70135    0.57955    1.000
    Si3351   Si       0.56578    0.73801    0.60941    1.000
    N3352    N        0.54549    0.61775    0.70060    1.000
    Si3353   Si       0.53483    0.61144    0.65956    1.000
    N3354    N        0.53019    0.56931    0.65372    1.000
    Si3355   Si       0.55237    0.54253    0.68111    1.000
    N3356    N        0.53382    0.55001    0.71908    1.000
    Si3357   Si       0.52141    0.59163    0.72622    1.000
    N3358    N        0.56145    0.62951    0.63120    1.000
    Si3359   Si       0.57278    0.64729    0.71726    1.000
    N3360    N        0.54926    0.67148    0.74387    1.000
    N3361    N        0.55263    0.54582    0.80235    1.000
    Si3362   Si       0.56442    0.61935    0.83239    1.000
    N3363    N        0.52696    0.59705    0.83682    1.000
    N3364    N        0.52577    0.60682    0.76769    1.000
    Si3365   Si       0.52012    0.57487    0.79889    1.000
    Si3366   Si       0.52929    0.64993    0.77611    1.000
    N3367    N        0.55993    0.65362    0.80626    1.000
    Si3368   Si       0.55526    0.71486    0.75107    1.000
    N3369    N        0.51794    0.73784    0.75743    1.000
    Si3370   Si       0.56874    0.60925    0.98761    1.000
    Si3371   Si       0.53633    0.52196    0.91812    1.000
    N3372    N        0.57116    0.53854    0.93773    1.000
    Si3373   Si       0.57026    0.53230    0.97992    1.000
    N3374    N        0.52400    0.60396    0.98228    1.000
    N3375    N        0.54352    0.50594    0.87803    1.000
    Si3376   Si       0.56013    0.72006    0.91328    1.000
    Si3377   Si       0.55591    0.64313    0.91201    1.000
    N3378    N        0.53777    0.74397    0.94155    1.000
    Si3379   Si       0.54705    0.72663    0.98119    1.000
    N3380    N        0.54927    0.73647    0.87308    1.000
    N3381    N        0.53924    0.68283    0.91494    1.000
    N3382    N        0.53623    0.77029    0.06519    1.000
    Si3383   Si       0.55934    0.87187    0.07886    1.000
    Si3384   Si       0.54602    0.85002    0.01552    1.000
    N3385    N        0.56443    0.83770    0.05408    1.000
    Si3386   Si       0.57152    0.79732    0.06784    1.000
    N3387    N        0.54678    0.94923    0.03209    1.000
    Si3388   Si       0.54747    0.99051    0.05219    1.000
    N3389    N        0.53267    0.93607    0.11108    1.000
    Si3390   Si       0.57694    0.93848    0.09939    1.000
    N3391    N        0.52035    0.88545    0.01284    1.000
    N3392    N        0.56341    0.86799    0.12138    1.000
    N3393    N        0.52340    0.81118    0.13120    1.000
    Si3394   Si       0.55139    0.77773    0.13264    1.000
    N3395    N        0.54601    0.86077    0.18630    1.000
    Si3396   Si       0.53303    0.85097    0.14604    1.000
    N3397    N        0.53859    0.76793    0.23242    1.000
    N3398    N        0.57366    0.78087    0.16963    1.000
    Si3399   Si       0.52870    0.94060    0.20212    1.000
    N3400    N        0.57124    0.98123    0.14375    1.000
    Si3401   Si       0.52865    0.97391    0.13383    1.000
    N3402    N        0.53914    0.96836    0.23569    1.000
    N3403    N        0.56843    0.92535    0.19134    1.000
    N3404    N        0.55275    0.80149    0.29346    1.000
    N3405    N        0.52736    0.86266    0.30636    1.000
    Si3406   Si       0.55401    0.76418    0.27247    1.000
    Si3407   Si       0.52080    0.82690    0.28362    1.000
    Si3408   Si       0.56340    0.87984    0.32391    1.000
    N3409    N        0.57581    0.84521    0.34770    1.000
    Si3410   Si       0.53113    0.98954    0.30415    1.000
    N3411    N        0.56317    0.91678    0.35056    1.000
    N3412    N        0.56941    0.96810    0.29739    1.000
    Si3413   Si       0.54523    0.83674    0.38164    1.000
    N3414    N        0.53395    0.86940    0.41089    1.000
    Si3415   Si       0.55130    0.77122    0.42020    1.000
    N3416    N        0.56862    0.80522    0.39982    1.000
    N3417    N        0.56648    0.76285    0.46061    1.000
    N3418    N        0.54222    0.81753    0.49081    1.000
    Si3419   Si       0.57203    0.84922    0.49698    1.000
    N3420    N        0.51782    0.96004    0.37931    1.000
    N3421    N        0.55221    0.88251    0.47766    1.000
    Si3422   Si       0.55624    0.94311    0.38508    1.000
    N3423    N        0.52992    0.99433    0.44205    1.000
    Si3424   Si       0.56362    0.96668    0.45279    1.000
    N3425    N        0.55114    0.95480    0.49208    1.000
    N3426    N        0.54713    0.93511    0.42729    1.000
    Si3427   Si       0.56631    0.89312    0.43570    1.000
    N3428    N        0.53681    0.86545    0.59766    1.000
    Si3429   Si       0.53740    0.86812    0.55468    1.000
    N3430    N        0.56609    0.79343    0.59970    1.000
    Si3431   Si       0.54503    0.77356    0.49741    1.000
    Si3432   Si       0.54517    0.82794    0.61945    1.000
    N3433    N        0.53680    0.93273    0.60843    1.000
    N3434    N        0.53879    0.90956    0.54211    1.000
    Si3435   Si       0.54341    0.98567    0.52017    1.000
    N3436    N        0.56373    0.97464    0.55827    1.000
    Si3437   Si       0.55863    0.93460    0.56975    1.000
    Si3438   Si       0.53162    0.91768    0.49998    1.000
    Si3439   Si       0.56010    0.83425    0.70432    1.000
    N3440    N        0.54089    0.87242    0.70853    1.000
    N3441    N        0.55007    0.79379    0.71584    1.000
    N3442    N        0.55941    0.84005    0.65909    1.000
    Si3443   Si       0.54762    0.88257    0.66608    1.000
    N3444    N        0.52542    0.00570    0.62037    1.000
    N3445    N        0.55682    0.78034    0.82360    1.000
    Si3446   Si       0.53958    0.86241    0.79950    1.000
    Si3447   Si       0.51964    0.79982    0.82639    1.000
    N3448    N        0.51950    0.84315    0.83133    1.000
    N3449    N        0.51894    0.84854    0.76447    1.000
    Si3450   Si       0.52062    0.86027    0.86865    1.000
    Si3451   Si       0.56636    0.92751    0.83381    1.000
    N3452    N        0.56816    0.96938    0.81944    1.000
    Si3453   Si       0.52996    0.99268    0.81789    1.000
    N3454    N        0.53777    0.90645    0.80745    1.000
    N3455    N        0.55917    0.85640    0.88557    1.000
    Si3456   Si       0.56149    0.85742    0.93630    1.000
    Si3457   Si       0.54677    0.78542    0.95616    1.000
    N3458    N        0.53224    0.82243    0.93912    1.000
    N3459    N        0.57352    0.85874    0.98322    1.000
    N3460    N        0.54535    0.76798    0.99739    1.000
    N3461    N        0.55310    0.98221    0.96034    1.000
    N3462    N        0.53397    0.89271    0.93792    1.000
    N3463    N        0.56538    0.99832    0.89603    1.000
    Si3464   Si       0.53144    0.99057    0.92124    1.000
    N3465    N        0.56396    0.93104    0.87772    1.000
    Si3466   Si       0.53122    0.91768    0.90306    1.000
    N3467    N        0.62742    0.02098    0.05241    1.000
    Si3468   Si       0.58778    0.07891    0.08905    1.000
    Si3469   Si       0.60522    0.01949    0.01631    1.000
    N3470    N        0.62899    0.08555    0.07336    1.000
    N3471    N        0.58704    0.03833    0.10525    1.000
    Si3472   Si       0.63341    0.12858    0.05681    1.000
    N3473    N        0.58242    0.10966    0.12124    1.000
    N3474    N        0.59673    0.14207    0.03588    1.000
    Si3475   Si       0.59693    0.17809    0.01371    1.000
    N3476    N        0.59713    0.21741    0.09981    1.000
    Si3477   Si       0.62982    0.19034    0.11247    1.000
    N3478    N        0.63412    0.14900    0.09469    1.000
    N3479    N        0.63529    0.10455    0.16470    1.000
    Si3480   Si       0.62792    0.06385    0.17423    1.000
    N3481    N        0.58534    0.05171    0.17242    1.000
    Si3482   Si       0.61943    0.12979    0.13247    1.000
    Si3483   Si       0.60766    0.04774    0.24624    1.000
    N3484    N        0.58367    0.01329    0.24478    1.000
    Si3485   Si       0.61238    0.21840    0.24415    1.000
    Si3486   Si       0.62572    0.17114    0.19194    1.000
    N3487    N        0.61818    0.16957    0.15100    1.000
    N3488    N        0.63530    0.21221    0.20745    1.000
    N3489    N        0.59753    0.15121    0.21950    1.000
    N3490    N        0.61815    0.08817    0.34919    1.000
    N3491    N        0.61166    0.02144    0.34406    1.000
    N3492    N        0.62705    0.05834    0.28411    1.000
    Si3493   Si       0.61018    0.12779    0.33093    1.000
    Si3494   Si       0.63202    0.05454    0.32681    1.000
    N3495    N        0.59862    0.13092    0.28866    1.000
    Si3496   Si       0.58180    0.18151    0.35650    1.000
    N3497    N        0.59419    0.21011    0.32498    1.000
    Si3498   Si       0.59314    0.16478    0.26118    1.000
    N3499    N        0.63243    0.18561    0.26800    1.000
    Si3500   Si       0.63222    0.19394    0.31150    1.000
    Si3501   Si       0.57845    0.09400    0.45799    1.000
    N3502    N        0.60811    0.06273    0.46742    1.000
    N3503    N        0.59236    0.10439    0.41817    1.000
    Si3504   Si       0.60874    0.07425    0.38859    1.000
    Si3505   Si       0.59667    0.02524    0.48672    1.000
    N3506    N        0.61353    0.24269    0.42347    1.000
    N3507    N        0.58762    0.19551    0.46972    1.000
    Si3508   Si       0.58316    0.20397    0.42738    1.000
    Si3509   Si       0.62608    0.18788    0.48840    1.000
    N3510    N        0.60493    0.18699    0.39240    1.000
    Si3511   Si       0.60723    0.05553    0.55436    1.000
    N3512    N        0.62377    0.03045    0.52225    1.000
    Si3513   Si       0.58601    0.12427    0.52347    1.000
    N3514    N        0.58279    0.03609    0.58444    1.000
    N3515    N        0.57921    0.08259    0.53446    1.000
    Si3516   Si       0.62775    0.06542    0.62124    1.000
    N3517    N        0.62343    0.15025    0.51297    1.000
    Si3518   Si       0.62342    0.16165    0.55725    1.000
    N3519    N        0.62508    0.20338    0.56166    1.000
    Si3520   Si       0.63076    0.24077    0.54362    1.000
    N3521    N        0.58033    0.14782    0.56059    1.000
    Si3522   Si       0.63222    0.10545    0.66617    1.000
    N3523    N        0.62675    0.02418    0.63811    1.000
    N3524    N        0.61806    0.07540    0.69713    1.000
    N3525    N        0.60138    0.09857    0.63460    1.000
    N3526    N        0.59280    0.14688    0.73458    1.000
    Si3527   Si       0.63696    0.13771    0.73053    1.000
    Si3528   Si       0.61898    0.05471    0.82398    1.000
    N3529    N        0.60254    0.02971    0.79407    1.000
    N3530    N        0.62121    0.09782    0.81483    1.000
    N3531    N        0.58286    0.06020    0.84967    1.000
    Si3532   Si       0.60137    0.13530    0.83132    1.000
    N3533    N        0.59306    0.20708    0.84560    1.000
    Si3534   Si       0.59063    0.22648    0.80641    1.000
    N3535    N        0.60864    0.20643    0.77279    1.000
    Si3536   Si       0.59080    0.25013    0.86357    1.000
    Si3537   Si       0.57903    0.17505    0.76527    1.000
    Si3538   Si       0.62344    0.18551    0.86990    1.000
    Si3539   Si       0.63203    0.10980    0.93627    1.000
    N3540    N        0.59246    0.10627    0.95332    1.000
    N3541    N        0.62281    0.09235    0.89618    1.000
    Si3542   Si       0.58128    0.09203    0.88355    1.000
    N3543    N        0.61312    0.05826    0.99812    1.000
    N3544    N        0.60007    0.25311    0.98248    1.000
    N3545    N        0.60228    0.17271    0.90519    1.000
    N3546    N        0.61105    0.25372    0.90220    1.000
    Si3547   Si       0.61661    0.18091    0.94617    1.000
    N3548    N        0.58492    0.17268    0.97269    1.000
    N3549    N        0.59905    0.28817    0.11336    1.000
    Si3550   Si       0.60194    0.25858    0.07966    1.000
    N3551    N        0.58347    0.47295    0.11629    1.000
    Si3552   Si       0.60384    0.39081    0.00959    1.000
    N3553    N        0.58840    0.40243    0.09118    1.000
    Si3554   Si       0.61324    0.42951    0.06766    1.000
    N3555    N        0.60882    0.46433    0.04127    1.000
    Si3556   Si       0.60829    0.50706    0.03333    1.000
    N3557    N        0.63242    0.40061    0.04193    1.000
    Si3558   Si       0.61362    0.46026    0.99756    1.000
    N3559    N        0.58383    0.32078    0.24727    1.000
    N3560    N        0.63331    0.37201    0.21955    1.000
    N3561    N        0.60371    0.28622    0.17806    1.000
    Si3562   Si       0.59115    0.28580    0.22140    1.000
    Si3563   Si       0.62729    0.29764    0.14447    1.000
    Si3564   Si       0.59683    0.36214    0.24133    1.000
    N3565    N        0.58405    0.35383    0.14377    1.000
    N3566    N        0.61625    0.26064    0.24598    1.000
    Si3567   Si       0.62666    0.47903    0.12052    1.000
    N3568    N        0.62775    0.48718    0.16282    1.000
    N3569    N        0.59523    0.51021    0.21952    1.000
    Si3570   Si       0.58997    0.50465    0.17545    1.000
    Si3571   Si       0.59834    0.39248    0.13036    1.000
    N3572    N        0.59765    0.33136    0.34766    1.000
    Si3573   Si       0.59916    0.36948    0.32258    1.000
    N3574    N        0.63216    0.26834    0.35677    1.000
    Si3575   Si       0.63165    0.30567    0.33761    1.000
    N3576    N        0.60290    0.38200    0.27882    1.000
    Si3577   Si       0.60961    0.42496    0.26890    1.000
    N3578    N        0.61130    0.44761    0.30718    1.000
    Si3579   Si       0.58077    0.47657    0.31580    1.000
    N3580    N        0.63779    0.38428    0.33667    1.000
    N3581    N        0.62897    0.29920    0.47248    1.000
    Si3582   Si       0.60131    0.26728    0.38681    1.000
    Si3583   Si       0.60082    0.27631    0.44878    1.000
    N3584    N        0.59370    0.30223    0.41263    1.000
    Si3585   Si       0.59790    0.34011    0.39065    1.000
    N3586    N        0.60579    0.37876    0.45422    1.000
    N3587    N        0.63647    0.35896    0.40083    1.000
    N3588    N        0.59565    0.42871    0.40739    1.000
    N3589    N        0.63056    0.48184    0.43555    1.000
    Si3590   Si       0.59717    0.48897    0.46290    1.000
    N3591    N        0.59155    0.29933    0.60917    1.000
    N3592    N        0.60407    0.27715    0.54488    1.000
    Si3593   Si       0.62529    0.29312    0.58262    1.000
    N3594    N        0.63123    0.34531    0.52043    1.000
    Si3595   Si       0.61079    0.37546    0.49727    1.000
    Si3596   Si       0.61721    0.41413    0.59481    1.000
    Si3597   Si       0.62049    0.48129    0.58720    1.000
    N3598    N        0.59300    0.42285    0.55988    1.000
    Si3599   Si       0.61424    0.44025    0.52414    1.000
    N3600    N        0.58435    0.49813    0.60141    1.000
    N3601    N        0.63162    0.47406    0.54625    1.000
    N3602    N        0.63314    0.44984    0.61697    1.000
    N3603    N        0.58585    0.45877    0.49363    1.000
    N3604    N        0.60697    0.25966    0.66012    1.000
    Si3605   Si       0.61105    0.30126    0.72614    1.000
    N3606    N        0.59443    0.34521    0.65858    1.000
    Si3607   Si       0.58797    0.30119    0.65526    1.000
    N3608    N        0.63168    0.26277    0.72621    1.000
    Si3609   Si       0.62678    0.46651    0.71847    1.000
    N3610    N        0.60426    0.45426    0.68231    1.000
    N3611    N        0.59558    0.40318    0.63019    1.000
    Si3612   Si       0.62049    0.42560    0.65606    1.000
    N3613    N        0.60702    0.30989    0.76877    1.000
    N3614    N        0.58890    0.36939    0.80519    1.000
    Si3615   Si       0.58965    0.34745    0.84406    1.000
    N3616    N        0.62708    0.32516    0.84034    1.000
    Si3617   Si       0.62507    0.29542    0.80723    1.000
    N3618    N        0.60561    0.26166    0.82560    1.000
    Si3619   Si       0.62813    0.39008    0.79741    1.000
    N3620    N        0.61212    0.42775    0.81199    1.000
    Si3621   Si       0.60990    0.46643    0.79053    1.000
    Si3622   Si       0.61953    0.42812    0.85842    1.000
    N3623    N        0.59592    0.39120    0.86103    1.000
    Si3624   Si       0.58013    0.49865    0.85789    1.000
    N3625    N        0.59596    0.45913    0.75005    1.000
    N3626    N        0.58063    0.48800    0.81581    1.000
    N3627    N        0.59849    0.46214    0.87279    1.000
    N3628    N        0.63373    0.39091    0.75510    1.000
    N3629    N        0.62337    0.30785    0.94131    1.000
    Si3630   Si       0.61273    0.34690    0.95528    1.000
    Si3631   Si       0.59709    0.27399    0.94040    1.000
    N3632    N        0.59441    0.37707    0.93188    1.000
    N3633    N        0.59410    0.35108    0.99359    1.000
    N3634    N        0.60407    0.42330    0.98179    1.000
    Si3635   Si       0.63193    0.47597    0.89745    1.000
    Si3636   Si       0.62213    0.40748    0.94693    1.000
    N3637    N        0.63242    0.43764    0.91989    1.000
    N3638    N        0.59460    0.49851    0.99066    1.000
    N3639    N        0.63291    0.50902    0.92783    1.000
    N3640    N        0.62228    0.51762    0.09797    1.000
    N3641    N        0.59169    0.63126    0.01936    1.000
    N3642    N        0.62943    0.58430    0.08360    1.000
    Si3643   Si       0.57787    0.51313    0.09627    1.000
    Si3644   Si       0.58349    0.64814    0.06192    1.000
    N3645    N        0.62648    0.65650    0.07135    1.000
    Si3646   Si       0.63437    0.63888    0.00960    1.000
    Si3647   Si       0.62529    0.53889    0.23102    1.000
    N3648    N        0.61475    0.57771    0.21444    1.000
    Si3649   Si       0.62119    0.61101    0.24273    1.000
    Si3650   Si       0.58126    0.57970    0.18884    1.000
    N3651    N        0.58002    0.61545    0.16328    1.000
    Si3652   Si       0.60915    0.64708    0.16972    1.000
    N3653    N        0.59230    0.68805    0.16004    1.000
    N3654    N        0.60058    0.73341    0.20997    1.000
    Si3655   Si       0.62131    0.71916    0.17304    1.000
    N3656    N        0.62315    0.64280    0.21200    1.000
    N3657    N        0.63178    0.75393    0.14976    1.000
    Si3658   Si       0.58867    0.54001    0.29834    1.000
    N3659    N        0.62443    0.54524    0.27427    1.000
    N3660    N        0.58896    0.62503    0.26777    1.000
    N3661    N        0.60131    0.51333    0.33367    1.000
    N3662    N        0.60635    0.66599    0.31626    1.000
    Si3663   Si       0.59624    0.73636    0.32308    1.000
    Si3664   Si       0.59927    0.66735    0.27258    1.000
    N3665    N        0.59296    0.74808    0.28163    1.000
    N3666    N        0.63004    0.69133    0.25279    1.000
    Si3667   Si       0.61820    0.73151    0.24958    1.000
    N3668    N        0.63654    0.72117    0.33069    1.000
    Si3669   Si       0.60920    0.61409    0.46138    1.000
    N3670    N        0.60559    0.60467    0.38381    1.000
    N3671    N        0.60930    0.52637    0.48688    1.000
    N3672    N        0.57791    0.58999    0.44366    1.000
    N3673    N        0.60799    0.70200    0.46874    1.000
    N3674    N        0.58545    0.67144    0.38367    1.000
    Si3675   Si       0.61803    0.64519    0.39309    1.000
    N3676    N        0.58946    0.64009    0.49068    1.000
    Si3677   Si       0.60332    0.74375    0.45997    1.000
    N3678    N        0.62735    0.64362    0.43481    1.000
    N3679    N        0.60824    0.57101    0.61084    1.000
    N3680    N        0.60449    0.54409    0.55511    1.000
    N3681    N        0.62369    0.61450    0.54614    1.000
    Si3682   Si       0.58317    0.54017    0.59309    1.000
    Si3683   Si       0.58340    0.61726    0.52684    1.000
    Si3684   Si       0.58288    0.53954    0.51740    1.000
    Si3685   Si       0.62877    0.57913    0.57229    1.000
    N3686    N        0.61774    0.69267    0.54656    1.000
    N3687    N        0.60350    0.74401    0.58484    1.000
    Si3688   Si       0.62278    0.70362    0.58988    1.000
    N3689    N        0.60471    0.67086    0.61231    1.000
    Si3690   Si       0.58185    0.72205    0.54501    1.000
    Si3691   Si       0.62257    0.57008    0.65385    1.000
    Si3692   Si       0.62121    0.54428    0.71383    1.000
    N3693    N        0.59353    0.55301    0.68280    1.000
    N3694    N        0.62418    0.61489    0.66546    1.000
    N3695    N        0.60776    0.62476    0.73291    1.000
    Si3696   Si       0.59665    0.71346    0.68466    1.000
    Si3697   Si       0.59885    0.64490    0.64928    1.000
    N3698    N        0.58590    0.73160    0.64633    1.000
    N3699    N        0.58897    0.67008    0.68347    1.000
    N3700    N        0.57733    0.73378    0.71854    1.000
    N3701    N        0.59650    0.59885    0.80853    1.000
    N3702    N        0.61271    0.54724    0.75858    1.000
    Si3703   Si       0.59393    0.55884    0.79450    1.000
    Si3704   Si       0.61796    0.62484    0.77598    1.000
    N3705    N        0.63087    0.54408    0.81482    1.000
    Si3706   Si       0.59171    0.68368    0.80440    1.000
    N3707    N        0.61387    0.68784    0.84139    1.000
    N3708    N        0.62527    0.66802    0.78072    1.000
    N3709    N        0.61374    0.75431    0.83457    1.000
    N3710    N        0.57813    0.72130    0.78790    1.000
    Si3711   Si       0.61361    0.65276    0.86720    1.000
    N3712    N        0.60675    0.53319    0.87376    1.000
    N3713    N        0.62567    0.58542    0.91609    1.000
    Si3714   Si       0.60871    0.54289    0.91587    1.000
    Si3715   Si       0.61663    0.62434    0.93448    1.000
    N3716    N        0.57522    0.62482    0.94642    1.000
    N3717    N        0.57367    0.63660    0.87182    1.000
    Si3718   Si       0.63118    0.71456    0.98821    1.000
    N3719    N        0.58856    0.72051    0.98843    1.000
    N3720    N        0.60078    0.73050    0.91671    1.000
    N3721    N        0.62129    0.66052    0.90983    1.000
    N3722    N        0.59809    0.77729    0.04156    1.000
    N3723    N        0.58454    0.79444    0.10937    1.000
    N3724    N        0.62872    0.87104    0.02929    1.000
    N3725    N        0.63390    0.87061    0.10303    1.000
    Si3726   Si       0.61045    0.00531    0.09020    1.000
    Si3727   Si       0.59160    0.94018    0.03875    1.000
    N3728    N        0.58643    0.90664    0.06886    1.000
    N3729    N        0.58249    0.97429    0.07671    1.000
    Si3730   Si       0.63087    0.89603    0.06415    1.000
    N3731    N        0.59474    0.92546    0.99829    1.000
    N3732    N        0.61497    0.87134    0.17438    1.000
    N3733    N        0.58913    0.87448    0.23787    1.000
    Si3734   Si       0.60795    0.79167    0.14675    1.000
    N3735    N        0.60257    0.92327    0.13206    1.000
    Si3736   Si       0.60523    0.87994    0.13415    1.000
    Si3737   Si       0.59583    0.95131    0.16521    1.000
    N3738    N        0.63134    0.97007    0.18184    1.000
    Si3739   Si       0.58017    0.88311    0.19761    1.000
    N3740    N        0.61123    0.94607    0.24566    1.000
    N3741    N        0.59652    0.77565    0.34412    1.000
    N3742    N        0.61446    0.82957    0.29344    1.000
    Si3743   Si       0.58402    0.81237    0.31954    1.000
    Si3744   Si       0.61959    0.84409    0.25086    1.000
    Si3745   Si       0.60988    0.90490    0.26027    1.000
    Si3746   Si       0.58883    0.93617    0.32272    1.000
    N3747    N        0.59109    0.89922    0.29886    1.000
    Si3748   Si       0.62402    0.98215    0.35934    1.000
    N3749    N        0.63090    0.94543    0.33586    1.000
    Si3750   Si       0.57922    0.97122    0.25628    1.000
    Si3751   Si       0.61157    0.85464    0.37392    1.000
    Si3752   Si       0.60716    0.78351    0.38661    1.000
    N3753    N        0.60069    0.87716    0.41017    1.000
    N3754    N        0.61311    0.83330    0.49094    1.000
    N3755    N        0.63172    0.76734    0.48529    1.000
    N3756    N        0.61807    0.75441    0.41944    1.000
    Si3757   Si       0.63447    0.89625    0.42838    1.000
    N3758    N        0.60598    0.92045    0.45304    1.000
    Si3759   Si       0.62324    0.95398    0.47315    1.000
    N3760    N        0.60030    0.98976    0.46346    1.000
    N3761    N        0.58323    0.97600    0.37832    1.000
    Si3762   Si       0.60597    0.78809    0.58246    1.000
    N3763    N        0.62162    0.81067    0.55006    1.000
    Si3764   Si       0.62186    0.85532    0.55043    1.000
    Si3765   Si       0.60980    0.79287    0.51315    1.000
    N3766    N        0.57667    0.76536    0.52507    1.000
    N3767    N        0.63458    0.86311    0.59150    1.000
    N3768    N        0.57762    0.85563    0.53961    1.000
    N3769    N        0.59656    0.91912    0.58879    1.000
    Si3770   Si       0.58944    0.99413    0.58521    1.000
    N3771    N        0.63140    0.98552    0.58078    1.000
    N3772    N        0.62665    0.95022    0.51676    1.000
    N3773    N        0.62181    0.78135    0.70083    1.000
    Si3774   Si       0.58779    0.77448    0.72382    1.000
    N3775    N        0.59948    0.84069    0.72361    1.000
    Si3776   Si       0.63387    0.82390    0.70127    1.000
    Si3777   Si       0.57787    0.93596    0.62419    1.000
    N3778    N        0.57867    0.91312    0.66043    1.000
    Si3779   Si       0.61411    0.93436    0.67371    1.000
    Si3780   Si       0.62395    0.98447    0.72815    1.000
    N3781    N        0.61063    0.97419    0.68874    1.000
    N3782    N        0.63369    0.94193    0.63453    1.000
    Si3783   Si       0.59589    0.00311    0.66020    1.000
    N3784    N        0.58613    0.97817    0.62606    1.000
    N3785    N        0.59960    0.78717    0.76673    1.000
    Si3786   Si       0.60727    0.83010    0.76622    1.000
    Si3787   Si       0.61528    0.86773    0.81947    1.000
    N3788    N        0.62450    0.85361    0.85898    1.000
    Si3789   Si       0.57870    0.76493    0.85809    1.000
    Si3790   Si       0.58856    0.76217    0.80062    1.000
    N3791    N        0.58020    0.84913    0.79664    1.000
    N3792    N        0.60693    0.91059    0.82602    1.000
    Si3793   Si       0.60026    0.98375    0.79308    1.000
    N3794    N        0.58651    0.98638    0.75116    1.000
    N3795    N        0.62364    0.96569    0.86589    1.000
    N3796    N        0.60291    0.84341    0.92744    1.000
    N3797    N        0.59068    0.78277    0.95882    1.000
    Si3798   Si       0.59636    0.83335    0.88539    1.000
    Si3799   Si       0.61207    0.77220    0.92381    1.000
    N3800    N        0.59465    0.79050    0.88630    1.000
    Si3801   Si       0.59260    0.76553    0.99936    1.000
    Si3802   Si       0.58832    0.95895    0.96984    1.000
    Si3803   Si       0.61013    0.88447    0.99341    1.000
    N3804    N        0.61827    0.98918    0.98740    1.000
    N3805    N        0.60714    0.94776    0.93165    1.000
    Si3806   Si       0.58991    0.96181    0.89281    1.000
    Si3807   Si       0.65412    0.05437    0.05935    1.000
    N3808    N        0.67361    0.06806    0.02258    1.000
    N3809    N        0.68797    0.03686    0.08321    1.000
    Si3810   Si       0.69648    0.10288    0.02554    1.000
    N3811    N        0.66357    0.13241    0.02413    1.000
    Si3812   Si       0.67034    0.24966    0.09573    1.000
    N3813    N        0.66757    0.20899    0.11263    1.000
    N3814    N        0.63965    0.19379    0.00805    1.000
    Si3815   Si       0.66073    0.10898    0.20387    1.000
    N3816    N        0.66017    0.03896    0.16254    1.000
    N3817    N        0.63918    0.06979    0.22099    1.000
    Si3818   Si       0.67244    0.23531    0.21311    1.000
    N3819    N        0.66553    0.15535    0.20237    1.000
    N3820    N        0.67208    0.05084    0.34516    1.000
    Si3821   Si       0.65914    0.07804    0.26064    1.000
    N3822    N        0.66706    0.11826    0.25142    1.000
    N3823    N        0.69369    0.05900    0.28053    1.000
    Si3824   Si       0.69071    0.01748    0.26536    1.000
    N3825    N        0.67559    0.24319    0.25493    1.000
    N3826    N        0.66634    0.22060    0.31838    1.000
    Si3827   Si       0.66911    0.24456    0.35837    1.000
    Si3828   Si       0.66427    0.16154    0.24938    1.000
    Si3829   Si       0.69358    0.21922    0.28540    1.000
    N3830    N        0.63587    0.16009    0.33799    1.000
    N3831    N        0.64473    0.05812    0.40901    1.000
    Si3832   Si       0.64706    0.07301    0.45113    1.000
    Si3833   Si       0.66920    0.03156    0.38496    1.000
    N3834    N        0.67651    0.05132    0.47278    1.000
    N3835    N        0.65575    0.11572    0.46005    1.000
    N3836    N        0.66490    0.21270    0.38686    1.000
    N3837    N        0.65108    0.18434    0.45149    1.000
    N3838    N        0.67342    0.14473    0.39531    1.000
    Si3839   Si       0.65092    0.22012    0.42668    1.000
    N3840    N        0.67464    0.24989    0.44322    1.000
    Si3841   Si       0.67291    0.14851    0.43854    1.000
    Si3842   Si       0.67880    0.24916    0.48737    1.000
    Si3843   Si       0.64616    0.17453    0.37838    1.000
    Si3844   Si       0.66631    0.09715    0.56739    1.000
    N3845    N        0.65990    0.09164    0.52451    1.000
    Si3846   Si       0.66346    0.04518    0.51543    1.000
    Si3847   Si       0.65884    0.12836    0.50141    1.000
    N3848    N        0.63795    0.06973    0.58094    1.000
    N3849    N        0.65988    0.13936    0.56894    1.000
    Si3850   Si       0.65858    0.21162    0.59474    1.000
    N3851    N        0.64486    0.22788    0.50416    1.000
    N3852    N        0.69076    0.15598    0.51224    1.000
    N3853    N        0.64832    0.25477    0.58285    1.000
    N3854    N        0.69294    0.20052    0.56664    1.000
    Si3855   Si       0.69621    0.15808    0.55453    1.000
    N3856    N        0.66350    0.08627    0.64037    1.000
    Si3857   Si       0.64997    0.06682    0.72359    1.000
    N3858    N        0.64597    0.02322    0.72786    1.000
    N3859    N        0.69150    0.06814    0.70549    1.000
    N3860    N        0.64479    0.20755    0.69801    1.000
    Si3861   Si       0.63997    0.24792    0.68509    1.000
    Si3862   Si       0.65797    0.17720    0.66960    1.000
    Si3863   Si       0.64016    0.20815    0.74089    1.000
    N3864    N        0.64367    0.18757    0.62885    1.000
    N3865    N        0.64224    0.14067    0.68689    1.000
    Si3866   Si       0.65978    0.09832    0.79329    1.000
    N3867    N        0.66861    0.05807    0.80587    1.000
    Si3868   Si       0.67967    0.04949    0.84682    1.000
    N3869    N        0.64165    0.03350    0.85695    1.000
    N3870    N        0.69339    0.12294    0.81103    1.000
    N3871    N        0.64923    0.10066    0.75137    1.000
    Si3872   Si       0.68931    0.19384    0.77648    1.000
    Si3873   Si       0.68245    0.15311    0.84096    1.000
    N3874    N        0.67258    0.22988    0.76045    1.000
    N3875    N        0.66039    0.16872    0.75349    1.000
    N3876    N        0.69197    0.19266    0.82045    1.000
    Si3877   Si       0.69380    0.21856    0.85427    1.000
    N3878    N        0.63871    0.15252    0.84755    1.000
    N3879    N        0.67800    0.01878    0.97522    1.000
    N3880    N        0.65781    0.07850    0.94731    1.000
    Si3881   Si       0.64961    0.05706    0.90955    1.000
    Si3882   Si       0.65591    0.05540    0.98602    1.000
    N3883    N        0.68764    0.06277    0.88901    1.000
    N3884    N        0.64186    0.01431    0.92044    1.000
    Si3885   Si       0.64930    0.23686    0.90993    1.000
    N3886    N        0.65771    0.20968    0.87758    1.000
    Si3887   Si       0.66556    0.16254    0.99136    1.000
    N3888    N        0.64310    0.21561    0.94855    1.000
    N3889    N        0.64539    0.14761    0.95517    1.000
    Si3890   Si       0.63897    0.23354    0.98894    1.000
    N3891    N        0.69112    0.36377    0.01782    1.000
    N3892    N        0.67620    0.25403    0.99685    1.000
    N3893    N        0.64099    0.25431    0.06363    1.000
    N3894    N        0.68287    0.38837    0.09117    1.000
    N3895    N        0.64257    0.44503    0.10001    1.000
    Si3896   Si       0.67338    0.39025    0.04907    1.000
    Si3897   Si       0.68801    0.45392    0.00850    1.000
    Si3898   Si       0.66542    0.41300    0.12026    1.000
    N3899    N        0.65492    0.32702    0.16528    1.000
    N3900    N        0.66185    0.27449    0.13205    1.000
    Si3901   Si       0.65098    0.36692    0.17973    1.000
    Si3902   Si       0.68940    0.30072    0.16191    1.000
    N3903    N        0.69259    0.26497    0.18874    1.000
    Si3904   Si       0.66545    0.49489    0.18170    1.000
    N3905    N        0.69241    0.46855    0.20320    1.000
    N3906    N        0.69051    0.50274    0.14360    1.000
    N3907    N        0.63868    0.38862    0.14465    1.000
    Si3908   Si       0.66821    0.39451    0.23657    1.000
    N3909    N        0.68578    0.38806    0.19661    1.000
    Si3910   Si       0.67778    0.33185    0.28579    1.000
    N3911    N        0.66901    0.32687    0.35026    1.000
    Si3912   Si       0.65447    0.28038    0.26026    1.000
    N3913    N        0.68310    0.37252    0.27296    1.000
    N3914    N        0.64401    0.30260    0.29564    1.000
    Si3915   Si       0.66284    0.36831    0.36528    1.000
    N3916    N        0.68288    0.31144    0.24744    1.000
    Si3917   Si       0.68236    0.47158    0.36027    1.000
    Si3918   Si       0.68442    0.44991    0.27183    1.000
    N3919    N        0.64916    0.43007    0.25310    1.000
    N3920    N        0.68112    0.43968    0.31398    1.000
    Si3921   Si       0.64087    0.42707    0.33159    1.000
    N3922    N        0.69760    0.49131    0.26791    1.000
    N3923    N        0.67674    0.50588    0.33445    1.000
    N3924    N        0.66891    0.35733    0.46779    1.000
    Si3925   Si       0.64424    0.37837    0.43789    1.000
    Si3926   Si       0.65637    0.32192    0.49431    1.000
    N3927    N        0.64906    0.44601    0.37042    1.000
    Si3928   Si       0.63415    0.44532    0.41142    1.000
    N3929    N        0.68914    0.48935    0.40089    1.000
    N3930    N        0.66012    0.41863    0.43304    1.000
    Si3931   Si       0.65259    0.35770    0.55775    1.000
    N3932    N        0.65506    0.32361    0.58540    1.000
    Si3933   Si       0.68730    0.33304    0.61458    1.000
    N3934    N        0.68867    0.36913    0.53573    1.000
    N3935    N        0.68619    0.29013    0.50222    1.000
    N3936    N        0.65072    0.39370    0.58225    1.000
    Si3937   Si       0.66960    0.49913    0.54431    1.000
    N3938    N        0.66405    0.50217    0.59214    1.000
    N3939    N        0.68988    0.47787    0.51346    1.000
    Si3940   Si       0.67439    0.38819    0.49806    1.000
    Si3941   Si       0.69221    0.40513    0.58647    1.000
    N3942    N        0.63694    0.40924    0.50587    1.000
    N3943    N        0.67235    0.27150    0.67351    1.000
    N3944    N        0.67176    0.33899    0.65423    1.000
    Si3945   Si       0.68210    0.31078    0.69088    1.000
    N3946    N        0.64112    0.32667    0.70707    1.000
    Si3947   Si       0.63492    0.35477    0.67149    1.000
    N3948    N        0.64125    0.39658    0.68206    1.000
    Si3949   Si       0.67245    0.46862    0.62284    1.000
    N3950    N        0.68989    0.47847    0.66222    1.000
    N3951    N        0.66379    0.44505    0.73018    1.000
    Si3952   Si       0.65863    0.40098    0.72351    1.000
    N3953    N        0.64246    0.50567    0.70942    1.000
    Si3954   Si       0.66635    0.34343    0.85189    1.000
    N3955    N        0.66500    0.28691    0.79317    1.000
    Si3956   Si       0.66552    0.27127    0.75318    1.000
    N3957    N        0.66148    0.37803    0.82444    1.000
    N3958    N        0.64814    0.48389    0.78415    1.000
    Si3959   Si       0.68029    0.45845    0.76659    1.000
    N3960    N        0.66289    0.43303    0.85957    1.000
    Si3961   Si       0.68907    0.41060    0.83139    1.000
    N3962    N        0.65922    0.49436    0.86781    1.000
    Si3963   Si       0.66359    0.30661    0.92528    1.000
    N3964    N        0.66509    0.33860    0.89523    1.000
    N3965    N        0.68004    0.26968    0.91086    1.000
    N3966    N        0.64719    0.37410    0.96155    1.000
    Si3967   Si       0.68334    0.35551    0.97390    1.000
    N3968    N        0.68784    0.31471    0.96104    1.000
    N3969    N        0.69098    0.47128    0.91906    1.000
    N3970    N        0.65371    0.46719    0.98488    1.000
    Si3971   Si       0.68848    0.46467    0.87578    1.000
    Si3972   Si       0.66508    0.49145    0.94983    1.000
    N3973    N        0.66439    0.61633    0.03253    1.000
    Si3974   Si       0.65096    0.62116    0.07446    1.000
    Si3975   Si       0.64742    0.54542    0.07577    1.000
    Si3976   Si       0.68199    0.52504    0.01322    1.000
    N3977    N        0.64454    0.52871    0.03520    1.000
    N3978    N        0.68597    0.62525    0.09813    1.000
    N3979    N        0.69102    0.53775    0.08587    1.000
    Si3980   Si       0.65182    0.68855    0.05503    1.000
    N3981    N        0.65074    0.73098    0.06598    1.000
    Si3982   Si       0.68662    0.73875    0.09281    1.000
    N3983    N        0.64049    0.68203    0.01410    1.000
    N3984    N        0.63938    0.75660    0.00062    1.000
    N3985    N        0.69386    0.67922    0.05429    1.000
    Si3986   Si       0.69200    0.56280    0.19454    1.000
    Si3987   Si       0.68369    0.62012    0.14235    1.000
    N3988    N        0.66167    0.53089    0.20823    1.000
    N3989    N        0.68852    0.57647    0.15237    1.000
    N3990    N        0.64403    0.63520    0.14767    1.000
    Si3991   Si       0.65160    0.67429    0.22027    1.000
    N3992    N        0.65790    0.70075    0.18707    1.000
    N3993    N        0.68585    0.65526    0.23542    1.000
    N3994    N        0.69394    0.71545    0.12844    1.000
    Si3995   Si       0.65474    0.57035    0.29325    1.000
    N3996    N        0.65390    0.60920    0.27315    1.000
    Si3997   Si       0.63944    0.52471    0.34880    1.000
    N3998    N        0.64078    0.56719    0.33463    1.000
    Si3999   Si       0.68503    0.63918    0.27623    1.000
    Si4000   Si       0.67039    0.74441    0.34483    1.000
    N4001    N        0.67956    0.66645    0.30827    1.000
    Si4002   Si       0.64520    0.67974    0.33088    1.000
    N4003    N        0.65561    0.75391    0.24612    1.000
    Si4004   Si       0.68821    0.75550    0.27464    1.000
    N4005    N        0.69629    0.71036    0.35383    1.000
    N4006    N        0.65070    0.66346    0.37029    1.000
    N4007    N        0.64191    0.53757    0.39118    1.000
    Si4008   Si       0.64093    0.58032    0.37782    1.000
    Si4009   Si       0.64829    0.54828    0.48574    1.000
    Si4010   Si       0.67362    0.61831    0.48623    1.000
    N4011    N        0.67520    0.59983    0.39356    1.000
    N4012    N        0.67766    0.52708    0.45787    1.000
    N4013    N        0.64226    0.58974    0.47772    1.000
    Si4014   Si       0.65889    0.51274    0.42177    1.000
    N4015    N        0.65599    0.65822    0.49506    1.000
    N4016    N        0.66502    0.70082    0.42589    1.000
    Si4017   Si       0.64225    0.67673    0.45595    1.000
    Si4018   Si       0.65892    0.74446    0.42171    1.000
    Si4019   Si       0.68277    0.68586    0.38929    1.000
    N4020    N        0.67482    0.53715    0.52044    1.000
    N4021    N        0.67005    0.56815    0.58050    1.000
    Si4022   Si       0.67494    0.54003    0.61310    1.000
    N4023    N        0.66321    0.71444    0.60041    1.000
    N4024    N        0.67818    0.65990    0.56077    1.000
    Si4025   Si       0.64243    0.65513    0.53700    1.000
    N4026    N        0.68099    0.75437    0.52671    1.000
    Si4027   Si       0.66315    0.75664    0.60903    1.000
    Si4028   Si       0.68987    0.56489    0.73024    1.000
    N4029    N        0.65109    0.57449    0.71036    1.000
    N4030    N        0.65252    0.53912    0.65008    1.000
    Si4031   Si       0.67483    0.51426    0.68093    1.000
    Si4032   Si       0.64144    0.61709    0.70511    1.000
    Si4033   Si       0.67178    0.69159    0.70305    1.000
    N4034    N        0.67355    0.64795    0.70221    1.000
    N4035    N        0.63982    0.71659    0.68887    1.000
    Si4036   Si       0.65521    0.75746    0.68967    1.000
    N4037    N        0.67920    0.70704    0.74231    1.000
    N4038    N        0.67417    0.75951    0.65120    1.000
    N4039    N        0.65534    0.60538    0.78861    1.000
    Si4040   Si       0.64777    0.52789    0.77746    1.000
    N4041    N        0.67105    0.56594    0.85494    1.000
    Si4042   Si       0.64459    0.53131    0.85401    1.000
    N4043    N        0.68599    0.54027    0.76599    1.000
    N4044    N        0.63903    0.61903    0.85530    1.000
    Si4045   Si       0.64001    0.58793    0.82424    1.000
    N4046    N        0.67105    0.71865    0.81004    1.000
    Si4047   Si       0.66436    0.68805    0.77937    1.000
    Si4048   Si       0.64189    0.72327    0.84280    1.000
    Si4049   Si       0.65727    0.59441    0.88781    1.000
    N4050    N        0.68086    0.52751    0.96865    1.000
    Si4051   Si       0.68400    0.62707    0.94855    1.000
    N4052    N        0.64338    0.62849    0.96773    1.000
    N4053    N        0.69015    0.60175    0.91291    1.000
    N4054    N        0.65444    0.70514    0.95230    1.000
    Si4055   Si       0.68044    0.75211    0.90202    1.000
    N4056    N        0.65589    0.72268    0.88319    1.000
    Si4057   Si       0.63349    0.70205    0.91388    1.000
    N4058    N        0.65860    0.80642    0.04895    1.000
    Si4059   Si       0.65391    0.83800    0.01820    1.000
    N4060    N        0.68400    0.77896    0.10855    1.000
    Si4061   Si       0.63998    0.76703    0.04434    1.000
    Si4062   Si       0.67500    0.87764    0.10856    1.000
    Si4063   Si       0.69063    0.80777    0.07763    1.000
    Si4064   Si       0.68043    0.93797    0.04894    1.000
    Si4065   Si       0.68696    0.99572    0.09871    1.000
    N4066    N        0.67680    0.89882    0.06938    1.000
    N4067    N        0.64423    0.98896    0.11240    1.000
    N4068    N        0.69540    0.93039    0.00930    1.000
    N4069    N        0.63505    0.94107    0.04825    1.000
    N4070    N        0.68303    0.86815    0.20269    1.000
    Si4071   Si       0.64743    0.84612    0.18582    1.000
    N4072    N        0.64429    0.81541    0.15501    1.000
    Si4073   Si       0.67063    0.78853    0.22417    1.000
    Si4074   Si       0.66802    0.77894    0.14958    1.000
    N4075    N        0.64046    0.82144    0.22116    1.000
    N4076    N        0.68936    0.77716    0.18806    1.000
    N4077    N        0.65743    0.00106    0.24254    1.000
    Si4078   Si       0.65606    0.99515    0.15341    1.000
    N4079    N        0.67401    0.93334    0.22605    1.000
    Si4080   Si       0.68549    0.89326    0.24021    1.000
    Si4081   Si       0.64485    0.96467    0.22413    1.000
    N4082    N        0.69013    0.89821    0.14245    1.000
    N4083    N        0.68603    0.84519    0.30699    1.000
    Si4084   Si       0.64348    0.85888    0.30598    1.000
    N4085    N        0.68257    0.77296    0.31393    1.000
    N4086    N        0.64560    0.87874    0.26451    1.000
    N4087    N        0.63831    0.87474    0.34606    1.000
    Si4088   Si       0.65407    0.91287    0.35515    1.000
    N4089    N        0.69573    0.91143    0.34352    1.000
    Si4090   Si       0.67601    0.80556    0.38684    1.000
    N4091    N        0.66347    0.87237    0.45210    1.000
    Si4092   Si       0.65299    0.84986    0.48887    1.000
    Si4093   Si       0.67433    0.77612    0.49091    1.000
    N4094    N        0.66820    0.76263    0.38330    1.000
    N4095    N        0.68219    0.81806    0.49556    1.000
    N4096    N        0.68649    0.75943    0.45215    1.000
    N4097    N        0.63427    0.81846    0.38410    1.000
    Si4098   Si       0.66920    0.95638    0.41412    1.000
    Si4099   Si       0.69017    0.96237    0.48958    1.000
    N4100    N        0.65016    0.92008    0.39773    1.000
    N4101    N        0.66270    0.95965    0.45629    1.000
    N4102    N        0.65520    0.99037    0.38901    1.000
    N4103    N        0.65299    0.87329    0.52453    1.000
    N4104    N        0.63924    0.79206    0.60882    1.000
    N4105    N        0.66263    0.92464    0.56774    1.000
    Si4106   Si       0.65066    0.96036    0.55004    1.000
    Si4107   Si       0.68494    0.90292    0.53887    1.000
    N4108    N        0.68185    0.98191    0.52752    1.000
    Si4109   Si       0.63791    0.90663    0.60012    1.000
    Si4110   Si       0.65213    0.83237    0.61920    1.000
    N4111    N        0.69083    0.76896    0.71176    1.000
    N4112    N        0.66411    0.82947    0.73232    1.000
    Si4113   Si       0.66747    0.87977    0.66794    1.000
    N4114    N        0.64431    0.84285    0.66274    1.000
    Si4115   Si       0.64112    0.98421    0.62145    1.000
    Si4116   Si       0.68531    0.00213    0.72757    1.000
    N4117    N        0.66409    0.96423    0.73293    1.000
    Si4118   Si       0.67828    0.93949    0.64447    1.000
    Si4119   Si       0.67694    0.92567    0.71399    1.000
    N4120    N        0.68252    0.98084    0.63071    1.000
    N4121    N        0.67523    0.89663    0.62836    1.000
    N4122    N        0.64630    0.90970    0.68851    1.000
    Si4123   Si       0.67158    0.86315    0.76255    1.000
    N4124    N        0.64048    0.85038    0.78857    1.000
    Si4125   Si       0.66628    0.94529    0.77130    1.000
    N4126    N        0.68116    0.92315    0.84059    1.000
    N4127    N        0.67026    0.90464    0.75272    1.000
    Si4128   Si       0.64000    0.93906    0.83514    1.000
    N4129    N        0.63700    0.96211    0.79665    1.000
    Si4130   Si       0.66151    0.86647    0.87732    1.000
    N4131    N        0.66653    0.83921    0.91132    1.000
    Si4132   Si       0.66104    0.78388    0.97296    1.000
    N4133    N        0.65445    0.77289    0.93212    1.000
    N4134    N        0.64577    0.82407    0.97999    1.000
    Si4135   Si       0.64133    0.84935    0.94509    1.000
    N4136    N        0.68695    0.97965    0.88085    1.000
    N4137    N        0.65718    0.90698    0.89705    1.000
    N4138    N        0.63960    0.88997    0.96193    1.000
    Si4139   Si       0.64872    0.99675    0.88034    1.000
    N4140    N        0.66950    0.95410    0.94645    1.000
    Si4141   Si       0.64983    0.99251    0.95596    1.000
    Si4142   Si       0.64153    0.92252    0.93337    1.000
    Si4143   Si       0.68844    0.93428    0.88340    1.000
    Si4144   Si       0.71743    0.06650    0.08574    1.000
    N4145    N        0.71555    0.10558    0.06529    1.000
    N4146    N        0.73967    0.03782    0.00631    1.000
    Si4147   Si       0.74664    0.19753    0.05841    1.000
    Si4148   Si       0.74414    0.13701    0.07464    1.000
    N4149    N        0.73087    0.22663    0.03074    1.000
    N4150    N        0.72354    0.17614    0.08695    1.000
    N4151    N        0.72120    0.07184    0.12748    1.000
    Si4152   Si       0.73934    0.10467    0.20092    1.000
    N4153    N        0.73409    0.03071    0.17890    1.000
    Si4154   Si       0.69975    0.05604    0.16457    1.000
    N4155    N        0.69937    0.08964    0.19140    1.000
    Si4156   Si       0.75157    0.03424    0.21760    1.000
    N4157    N        0.72001    0.16119    0.15217    1.000
    N4158    N        0.73676    0.22515    0.14028    1.000
    N4159    N        0.70538    0.20767    0.20356    1.000
    N4160    N        0.73470    0.14513    0.21598    1.000
    Si4161   Si       0.70628    0.16681    0.19130    1.000
    Si4162   Si       0.70826    0.19493    0.12328    1.000
    Si4163   Si       0.72717    0.23879    0.18165    1.000
    N4164    N        0.71303    0.10746    0.34317    1.000
    Si4165   Si       0.70297    0.06956    0.32292    1.000
    N4166    N        0.74314    0.04804    0.32884    1.000
    Si4167   Si       0.74904    0.12775    0.32603    1.000
    N4168    N        0.75254    0.12469    0.28165    1.000
    N4169    N        0.72938    0.01054    0.24653    1.000
    N4170    N        0.69904    0.17799    0.27057    1.000
    N4171    N        0.72883    0.23523    0.30288    1.000
    Si4172   Si       0.73535    0.15732    0.25837    1.000
    Si4173   Si       0.73667    0.05635    0.41629    1.000
    Si4174   Si       0.73760    0.12010    0.45284    1.000
    Si4175   Si       0.71761    0.05993    0.48445    1.000
    N4176    N        0.71047    0.02765    0.40047    1.000
    N4177    N        0.71757    0.09569    0.41983    1.000
    N4178    N        0.74442    0.04035    0.45668    1.000
    Si4179   Si       0.70999    0.12419    0.38617    1.000
    N4180    N        0.73104    0.09953    0.48993    1.000
    N4181    N        0.75065    0.14302    0.38526    1.000
    N4182    N        0.74360    0.25100    0.43277    1.000
    N4183    N        0.71463    0.22259    0.49312    1.000
    Si4184   Si       0.74820    0.24579    0.47515    1.000
    N4185    N        0.71328    0.15597    0.45003    1.000
    Si4186   Si       0.71810    0.17925    0.48802    1.000
    N4187    N        0.70951    0.04264    0.52412    1.000
    Si4188   Si       0.72421    0.05336    0.56552    1.000
    N4189    N        0.71880    0.01281    0.58128    1.000
    N4190    N        0.70398    0.08627    0.58523    1.000
    Si4191   Si       0.75157    0.12694    0.51990    1.000
    N4192    N        0.73715    0.14317    0.55882    1.000
    Si4193   Si       0.72174    0.22408    0.58871    1.000
    N4194    N        0.74755    0.19389    0.60601    1.000
    N4195    N        0.72599    0.11778    0.64628    1.000
    Si4196   Si       0.72453    0.08765    0.72843    1.000
    N4197    N        0.71862    0.04765    0.63921    1.000
    Si4198   Si       0.72159    0.04417    0.68193    1.000
    Si4199   Si       0.70468    0.08592    0.62820    1.000
    N4200    N        0.72852    0.13188    0.71676    1.000
    N4201    N        0.75340    0.06726    0.70291    1.000
    Si4202   Si       0.72932    0.14747    0.67713    1.000
    N4203    N        0.69800    0.22869    0.62349    1.000
    Si4204   Si       0.72962    0.20375    0.64806    1.000
    N4205    N        0.74372    0.24351    0.66421    1.000
    N4206    N        0.69979    0.17879    0.66862    1.000
    Si4207   Si       0.73254    0.10577    0.80027    1.000
    N4208    N        0.71472    0.02795    0.83223    1.000
    N4209    N        0.72051    0.07621    0.76987    1.000
    Si4210   Si       0.70744    0.04048    0.79157    1.000
    N4211    N        0.70868    0.01005    0.76247    1.000
    N4212    N        0.72949    0.19110    0.76162    1.000
    N4213    N        0.70947    0.15284    0.87419    1.000
    Si4214   Si       0.74954    0.15466    0.74545    1.000
    N4215    N        0.72344    0.10552    0.99258    1.000
    Si4216   Si       0.74459    0.06938    0.97865    1.000
    N4217    N        0.73079    0.11392    0.92824    1.000
    Si4218   Si       0.72109    0.07440    0.91315    1.000
    N4219    N        0.73342    0.04320    0.94532    1.000
    Si4220   Si       0.72140    0.01424    0.97482    1.000
    Si4221   Si       0.74564    0.14146    0.89606    1.000
    Si4222   Si       0.73569    0.13761    0.96642    1.000
    N4223    N        0.70783    0.16745    0.97945    1.000
    N4224    N        0.72750    0.22459    0.88465    1.000
    Si4225   Si       0.72964    0.29814    0.08821    1.000
    Si4226   Si       0.72409    0.33825    0.03066    1.000
    N4227    N        0.72597    0.33918    0.07284    1.000
    N4228    N        0.71720    0.29759    0.01672    1.000
    Si4229   Si       0.72699    0.37505    0.09669    1.000
    N4230    N        0.70505    0.26710    0.07646    1.000
    Si4231   Si       0.70068    0.25845    0.03389    1.000
    N4232    N        0.75458    0.37404    0.01957    1.000
    N4233    N        0.70881    0.49014    0.02209    1.000
    N4234    N        0.74852    0.41152    0.08723    1.000
    N4235    N        0.72253    0.47002    0.08860    1.000
    Si4236   Si       0.73327    0.43982    0.05934    1.000
    N4237    N        0.70033    0.42334    0.03804    1.000
    Si4238   Si       0.72148    0.39912    0.00241    1.000
    Si4239   Si       0.72140    0.31947    0.23067    1.000
    N4240    N        0.73414    0.36979    0.13836    1.000
    N4241    N        0.72073    0.30348    0.13047    1.000
    N4242    N        0.72206    0.32381    0.18888    1.000
    Si4243   Si       0.74604    0.32957    0.15282    1.000
    N4244    N        0.69651    0.43159    0.14324    1.000
    N4245    N        0.74871    0.47937    0.22666    1.000
    Si4246   Si       0.72626    0.44308    0.21584    1.000
    Si4247   Si       0.71165    0.50160    0.22837    1.000
    Si4248   Si       0.71390    0.46901    0.13140    1.000
    N4249    N        0.74732    0.41836    0.18727    1.000
    Si4250   Si       0.71622    0.39756    0.16746    1.000
    N4251    N        0.71260    0.31574    0.30676    1.000
    Si4252   Si       0.70867    0.30804    0.34871    1.000
    N4253    N        0.74443    0.28967    0.25128    1.000
    Si4254   Si       0.75091    0.30044    0.29213    1.000
    N4255    N        0.74216    0.35655    0.24643    1.000
    Si4256   Si       0.72470    0.38747    0.27155    1.000
    Si4257   Si       0.71520    0.42123    0.33529    1.000
    N4258    N        0.72386    0.45923    0.35703    1.000
    N4259    N        0.74536    0.40191    0.30866    1.000
    N4260    N        0.71250    0.42373    0.25087    1.000
    N4261    N        0.70139    0.38920    0.35982    1.000
    N4262    N        0.73953    0.33317    0.37056    1.000
    N4263    N        0.70044    0.26987    0.37307    1.000
    Si4264   Si       0.73374    0.37297    0.38388    1.000
    Si4265   Si       0.70571    0.34643    0.44874    1.000
    N4266    N        0.73143    0.34351    0.48325    1.000
    N4267    N        0.71686    0.37832    0.42319    1.000
    Si4268   Si       0.70665    0.26903    0.41849    1.000
    N4269    N        0.70381    0.31014    0.42879    1.000
    N4270    N        0.70525    0.41404    0.48390    1.000
    Si4271   Si       0.70474    0.41667    0.44194    1.000
    N4272    N        0.73597    0.44162    0.42612    1.000
    Si4273   Si       0.72988    0.47451    0.39831    1.000
    Si4274   Si       0.72865    0.36264    0.55527    1.000
    N4275    N        0.73595    0.31910    0.55084    1.000
    N4276    N        0.71060    0.36540    0.59606    1.000
    Si4277   Si       0.72613    0.31070    0.51023    1.000
    N4278    N        0.71275    0.29802    0.61551    1.000
    Si4279   Si       0.74544    0.29810    0.58789    1.000
    Si4280   Si       0.73695    0.45235    0.58871    1.000
    Si4281   Si       0.71381    0.44206    0.51590    1.000
    N4282    N        0.71365    0.42950    0.55725    1.000
    N4283    N        0.73271    0.49313    0.57263    1.000
    N4284    N        0.70131    0.43591    0.61647    1.000
    N4285    N        0.72549    0.30756    0.67883    1.000
    Si4286   Si       0.70855    0.26909    0.64893    1.000
    Si4287   Si       0.73717    0.28825    0.74530    1.000
    N4288    N        0.69509    0.29238    0.73306    1.000
    N4289    N        0.74349    0.42356    0.67924    1.000
    N4290    N        0.69814    0.38600    0.73441    1.000
    Si4291   Si       0.72060    0.44782    0.65381    1.000
    N4292    N        0.74770    0.47315    0.62965    1.000
    Si4293   Si       0.73604    0.35431    0.83155    1.000
    N4294    N        0.73720    0.28336    0.79055    1.000
    N4295    N        0.74131    0.36155    0.78930    1.000
    N4296    N        0.70524    0.32598    0.83690    1.000
    Si4297   Si       0.70203    0.28990    0.81506    1.000
    N4298    N        0.69649    0.26078    0.84707    1.000
    Si4299   Si       0.72320    0.39419    0.76728    1.000
    N4300    N        0.72358    0.39184    0.84929    1.000
    N4301    N        0.71800    0.48222    0.76951    1.000
    N4302    N        0.72997    0.46189    0.85753    1.000
    N4303    N        0.69351    0.42185    0.78936    1.000
    Si4304   Si       0.74992    0.42342    0.86919    1.000
    Si4305   Si       0.71580    0.26624    0.88792    1.000
    Si4306   Si       0.70639    0.28058    0.97908    1.000
    N4307    N        0.74949    0.29002    0.90171    1.000
    N4308    N        0.72079    0.37730    0.96375    1.000
    N4309    N        0.74011    0.25681    0.96433    1.000
    N4310    N        0.73967    0.41931    0.91069    1.000
    Si4311   Si       0.72310    0.44966    0.93662    1.000
    N4312    N        0.71734    0.44027    0.98080    1.000
    Si4313   Si       0.74468    0.47567    0.99420    1.000
    N4314    N        0.73417    0.61773    0.04750    1.000
    N4315    N        0.71249    0.55698    0.01393    1.000
    Si4316   Si       0.70473    0.59933    0.02117    1.000
    Si4317   Si       0.71659    0.50605    0.06457    1.000
    N4318    N        0.71459    0.74070    0.05912    1.000
    Si4319   Si       0.71494    0.64732    0.07439    1.000
    Si4320   Si       0.71999    0.70694    0.03301    1.000
    N4321    N        0.74840    0.66146    0.09686    1.000
    N4322    N        0.74390    0.53932    0.13195    1.000
    N4323    N        0.72534    0.53298    0.19811    1.000
    N4324    N        0.71922    0.59280    0.21341    1.000
    Si4325   Si       0.70182    0.54267    0.12840    1.000
    Si4326   Si       0.72070    0.63218    0.22758    1.000
    Si4327   Si       0.69621    0.69607    0.16669    1.000
    N4328    N        0.70746    0.65351    0.15767    1.000
    Si4329   Si       0.74765    0.65561    0.14001    1.000
    N4330    N        0.72393    0.71749    0.19518    1.000
    Si4331   Si       0.73052    0.58123    0.28458    1.000
    N4332    N        0.72493    0.62245    0.27187    1.000
    Si4333   Si       0.70705    0.51588    0.30282    1.000
    N4334    N        0.75376    0.55262    0.26013    1.000
    N4335    N        0.74996    0.51452    0.31771    1.000
    N4336    N        0.69767    0.55763    0.29587    1.000
    Si4337   Si       0.71194    0.69556    0.31545    1.000
    N4338    N        0.71230    0.72094    0.28214    1.000
    N4339    N        0.74861    0.67163    0.31875    1.000
    Si4340   Si       0.70153    0.51455    0.49065    1.000
    N4341    N        0.70200    0.62402    0.45594    1.000
    Si4342   Si       0.70672    0.61901    0.41402    1.000
    N4343    N        0.75193    0.61434    0.40960    1.000
    N4344    N        0.71460    0.65809    0.39770    1.000
    Si4345   Si       0.73965    0.64147    0.47056    1.000
    N4346    N        0.73739    0.55728    0.55863    1.000
    N4347    N        0.74087    0.52618    0.50091    1.000
    Si4348   Si       0.74140    0.51306    0.61131    1.000
    N4349    N        0.73974    0.62665    0.57006    1.000
    Si4350   Si       0.69647    0.56762    0.54495    1.000
    N4351    N        0.69375    0.60490    0.52291    1.000
    Si4352   Si       0.71142    0.63941    0.54063    1.000
    N4353    N        0.72923    0.71062    0.56028    1.000
    N4354    N        0.73366    0.66029    0.51057    1.000
    Si4355   Si       0.71523    0.75309    0.55324    1.000
    Si4356   Si       0.69946    0.69122    0.58643    1.000
    Si4357   Si       0.75208    0.64590    0.60793    1.000
    N4358    N        0.70546    0.54046    0.69864    1.000
    N4359    N        0.71459    0.54078    0.62999    1.000
    Si4360   Si       0.72761    0.56014    0.66659    1.000
    N4361    N        0.72773    0.60284    0.67616    1.000
    Si4362   Si       0.71399    0.62923    0.70735    1.000
    N4363    N        0.70920    0.60114    0.74184    1.000
    N4364    N        0.72350    0.67470    0.62330    1.000
    Si4365   Si       0.71563    0.73173    0.72805    1.000
    N4366    N        0.70666    0.71218    0.68648    1.000
    N4367    N        0.74023    0.74052    0.63896    1.000
    N4368    N        0.74014    0.65948    0.72638    1.000
    Si4369   Si       0.73618    0.70086    0.65679    1.000
    N4370    N        0.75375    0.75283    0.71105    1.000
    Si4371   Si       0.71397    0.75909    0.67287    1.000
    N4372    N        0.72065    0.59728    0.81317    1.000
    N4373    N        0.72857    0.52663    0.82157    1.000
    Si4374   Si       0.71199    0.56351    0.84016    1.000
    Si4375   Si       0.72696    0.52516    0.77915    1.000
    Si4376   Si       0.69663    0.61505    0.78228    1.000
    Si4377   Si       0.75336    0.62227    0.82549    1.000
    N4378    N        0.69633    0.65897    0.78316    1.000
    Si4379   Si       0.70714    0.73965    0.79632    1.000
    N4380    N        0.73884    0.71751    0.76848    1.000
    Si4381   Si       0.73306    0.67287    0.76705    1.000
    N4382    N        0.74159    0.74853    0.82360    1.000
    N4383    N        0.74534    0.64934    0.86065    1.000
    N4384    N        0.74005    0.56939    0.87118    1.000
    Si4385   Si       0.70758    0.56136    0.96905    1.000
    N4386    N        0.73851    0.55164    0.93913    1.000
    Si4387   Si       0.73116    0.58410    0.91158    1.000
    N4388    N        0.70469    0.60456    0.97746    1.000
    Si4389   Si       0.73676    0.65330    0.90547    1.000
    Si4390   Si       0.73015    0.75433    0.98252    1.000
    Si4391   Si       0.69688    0.69803    0.95221    1.000
    N4392    N        0.70661    0.66111    0.93497    1.000
    N4393    N        0.70962    0.73146    0.92748    1.000
    N4394    N        0.71522    0.71470    0.99071    1.000
    Si4395   Si       0.72352    0.81918    0.01024    1.000
    N4396    N        0.72703    0.80673    0.05145    1.000
    Si4397   Si       0.70908    0.86881    0.05767    1.000
    Si4398   Si       0.74717    0.76843    0.05565    1.000
    N4399    N        0.69934    0.84575    0.09345    1.000
    N4400    N        0.69615    0.85391    0.01588    1.000
    Si4401   Si       0.71295    0.89129    0.00130    1.000
    N4402    N        0.73985    0.89152    0.03705    1.000
    N4403    N        0.70503    0.96724    0.07420    1.000
    Si4404   Si       0.74912    0.97092    0.07662    1.000
    N4405    N        0.74590    0.86282    0.15013    1.000
    N4406    N        0.75621    0.83615    0.23596    1.000
    N4407    N        0.75151    0.77813    0.15686    1.000
    Si4408   Si       0.71530    0.88155    0.17420    1.000
    Si4409   Si       0.72938    0.76079    0.19126    1.000
    N4410    N        0.74286    0.89976    0.20555    1.000
    Si4411   Si       0.73849    0.99581    0.15231    1.000
    N4412    N        0.69760    0.99369    0.14130    1.000
    N4413    N        0.70832    0.81690    0.36023    1.000
    Si4414   Si       0.70670    0.80843    0.31419    1.000
    N4415    N        0.74604    0.86535    0.33409    1.000
    Si4416   Si       0.74721    0.79853    0.25488    1.000
    N4417    N        0.70311    0.79149    0.25347    1.000
    N4418    N        0.74880    0.80596    0.29781    1.000
    Si4419   Si       0.71089    0.88181    0.31342    1.000
    N4420    N        0.71587    0.89604    0.27139    1.000
    N4421    N        0.73954    0.98203    0.35496    1.000
    Si4422   Si       0.73207    0.00818    0.32053    1.000
    N4423    N        0.69505    0.99766    0.30310    1.000
    Si4424   Si       0.73927    0.84473    0.37311    1.000
    N4425    N        0.73236    0.86309    0.46803    1.000
    Si4426   Si       0.71936    0.78370    0.43794    1.000
    N4427    N        0.71786    0.87602    0.39826    1.000
    N4428    N        0.74189    0.79307    0.47470    1.000
    Si4429   Si       0.70182    0.86171    0.43569    1.000
    N4430    N        0.74617    0.77258    0.40832    1.000
    N4431    N        0.69710    0.81796    0.42499    1.000
    Si4432   Si       0.72020    0.91577    0.37893    1.000
    Si4433   Si       0.72752    0.98692    0.39551    1.000
    N4434    N        0.71009    0.94903    0.40398    1.000
    N4435    N        0.73182    0.97460    0.48315    1.000
    Si4436   Si       0.70593    0.87540    0.60833    1.000
    N4437    N        0.70138    0.76879    0.59061    1.000
    N4438    N        0.74966    0.84026    0.53123    1.000
    N4439    N        0.69534    0.83482    0.61240    1.000
    Si4440   Si       0.72560    0.82944    0.49590    1.000
    N4441    N        0.71316    0.88213    0.56652    1.000
    Si4442   Si       0.71990    0.79897    0.61533    1.000
    N4443    N        0.70395    0.92185    0.50566    1.000
    Si4444   Si       0.72052    0.99960    0.53813    1.000
    Si4445   Si       0.74518    0.93448    0.49737    1.000
    N4446    N        0.72521    0.80153    0.66119    1.000
    Si4447   Si       0.73174    0.83234    0.68962    1.000
    N4448    N        0.70588    0.86822    0.68713    1.000
    N4449    N        0.73579    0.82037    0.73192    1.000
    Si4450   Si       0.69661    0.80154    0.74057    1.000
    N4451    N        0.74970    0.96535    0.72924    1.000
    Si4452   Si       0.74261    0.89257    0.67965    1.000
    N4453    N        0.74727    0.89285    0.73126    1.000
    N4454    N        0.74994    0.98546    0.64416    1.000
    N4455    N        0.74174    0.88903    0.63391    1.000
    Si4456   Si       0.73644    0.96690    0.68541    1.000
    N4457    N        0.70191    0.93896    0.67934    1.000
    Si4458   Si       0.71780    0.00674    0.62349    1.000
    N4459    N        0.71248    0.00437    0.69424    1.000
    N4460    N        0.70867    0.85466    0.78246    1.000
    Si4461   Si       0.72597    0.85153    0.82418    1.000
    Si4462   Si       0.74450    0.85754    0.75508    1.000
    Si4463   Si       0.74455    0.78092    0.85365    1.000
    N4464    N        0.69850    0.85052    0.85865    1.000
    N4465    N        0.75276    0.81514    0.83038    1.000
    N4466    N        0.69703    0.77522    0.77528    1.000
    N4467    N        0.74017    0.95829    0.84478    1.000
    N4468    N        0.71147    0.94621    0.78446    1.000
    Si4469   Si       0.72326    0.99558    0.86149    1.000
    Si4470   Si       0.73858    0.97912    0.76859    1.000
    Si4471   Si       0.72008    0.92617    0.82084    1.000
    N4472    N        0.74567    0.89132    0.82296    1.000
    N4473    N        0.73222    0.84365    0.92528    1.000
    N4474    N        0.71233    0.78408    0.88706    1.000
    Si4475   Si       0.70463    0.82591    0.89434    1.000
    N4476    N        0.70216    0.78799    0.98876    1.000
    Si4477   Si       0.74284    0.75524    0.91143    1.000
    N4478    N        0.72676    0.92274    0.89878    1.000
    N4479    N        0.73600    0.97301    0.97753    1.000
    N4480    N        0.72324    0.90482    0.96220    1.000
    Si4481   Si       0.73985    0.88682    0.92506    1.000
    Si4482   Si       0.70471    0.94276    0.96885    1.000
    N4483    N        0.75208    0.99390    0.89617    1.000
    Si4484   Si       0.78389    0.02899    0.10415    1.000
    Si4485   Si       0.76722    0.03088    0.03929    1.000
    N4486    N        0.76485    0.12449    0.11007    1.000
    N4487    N        0.81121    0.04478    0.03177    1.000
    N4488    N        0.75732    0.05082    0.07592    1.000
    N4489    N        0.77611    0.22202    0.08046    1.000
    Si4490   Si       0.79687    0.16619    0.01384    1.000
    N4491    N        0.76798    0.15960    0.04643    1.000
    Si4492   Si       0.78889    0.25777    0.06079    1.000
    N4493    N        0.79648    0.06033    0.12899    1.000
    Si4494   Si       0.76256    0.08723    0.13130    1.000
    N4495    N        0.76939    0.11181    0.17069    1.000
    N4496    N        0.78959    0.01631    0.22643    1.000
    Si4497   Si       0.80797    0.10794    0.19264    1.000
    N4498    N        0.80473    0.11974    0.23729    1.000
    N4499    N        0.75452    0.07755    0.22995    1.000
    N4500    N        0.76756    0.24400    0.20084    1.000
    Si4501   Si       0.78544    0.21615    0.23032    1.000
    Si4502   Si       0.76146    0.14945    0.14748    1.000
    N4503    N        0.79001    0.18490    0.14837    1.000
    N4504    N        0.81145    0.24977    0.13063    1.000
    Si4505   Si       0.77836    0.21992    0.12404    1.000
    N4506    N        0.78633    0.10768    0.34106    1.000
    Si4507   Si       0.77875    0.06403    0.34708    1.000
    Si4508   Si       0.77791    0.09504    0.26138    1.000
    N4509    N        0.79860    0.06561    0.28419    1.000
    N4510    N        0.79592    0.22291    0.31171    1.000
    Si4511   Si       0.78401    0.18447    0.29875    1.000
    N4512    N        0.76569    0.18789    0.25823    1.000
    Si4513   Si       0.76055    0.23923    0.33368    1.000
    N4514    N        0.80638    0.25002    0.24879    1.000
    N4515    N        0.75468    0.17117    0.32684    1.000
    Si4516   Si       0.76837    0.17879    0.36884    1.000
    N4517    N        0.76928    0.07035    0.38977    1.000
    Si4518   Si       0.78073    0.11083    0.39837    1.000
    N4519    N        0.77842    0.12012    0.44318    1.000
    Si4520   Si       0.77622    0.24646    0.40346    1.000
    N4521    N        0.76194    0.22038    0.37277    1.000
    N4522    N        0.78562    0.22293    0.48454    1.000
    N4523    N        0.79248    0.11252    0.52962    1.000
    N4524    N        0.76719    0.05933    0.56215    1.000
    Si4525   Si       0.79419    0.09216    0.56927    1.000
    Si4526   Si       0.78663    0.02112    0.55579    1.000
    N4527    N        0.79298    0.12764    0.59644    1.000
    N4528    N        0.78580    0.19317    0.55631    1.000
    Si4529   Si       0.79015    0.19060    0.51295    1.000
    Si4530   Si       0.78627    0.22371    0.58792    1.000
    Si4531   Si       0.76884    0.16296    0.58247    1.000
    N4532    N        0.75304    0.25359    0.58090    1.000
    N4533    N        0.75668    0.16428    0.49922    1.000
    Si4534   Si       0.79284    0.07283    0.71738    1.000
    N4535    N        0.80238    0.11442    0.72923    1.000
    Si4536   Si       0.77751    0.25373    0.69002    1.000
    N4537    N        0.75992    0.25374    0.73009    1.000
    N4538    N        0.76060    0.17669    0.66638    1.000
    Si4539   Si       0.80118    0.19134    0.66201    1.000
    N4540    N        0.78311    0.18115    0.73534    1.000
    N4541    N        0.80959    0.22600    0.68857    1.000
    N4542    N        0.81134    0.19788    0.61921    1.000
    Si4543   Si       0.79532    0.10253    0.77518    1.000
    N4544    N        0.78954    0.06083    0.75921    1.000
    Si4545   Si       0.77948    0.08817    0.86301    1.000
    Si4546   Si       0.80208    0.02653    0.77911    1.000
    N4547    N        0.75985    0.13050    0.77743    1.000
    N4548    N        0.76459    0.08808    0.82272    1.000
    N4549    N        0.77884    0.13136    0.87080    1.000
    N4550    N        0.78446    0.23105    0.79020    1.000
    Si4551   Si       0.76581    0.21608    0.75372    1.000
    Si4552   Si       0.80558    0.21527    0.82608    1.000
    Si4553   Si       0.81101    0.15699    0.85858    1.000
    N4554    N        0.80075    0.20165    0.86892    1.000
    N4555    N        0.78671    0.07577    0.97429    1.000
    Si4556   Si       0.76806    0.02901    0.91291    1.000
    N4557    N        0.81041    0.02147    0.91683    1.000
    Si4558   Si       0.80967    0.11224    0.97564    1.000
    N4559    N        0.75695    0.06476    0.89086    1.000
    Si4560   Si       0.81013    0.04177    0.98837    1.000
    N4561    N        0.78562    0.20018    0.98848    1.000
    N4562    N        0.77928    0.14287    0.97071    1.000
    Si4563   Si       0.79272    0.17871    0.94949    1.000
    Si4564   Si       0.76657    0.20904    0.89419    1.000
    N4565    N        0.78968    0.23871    0.91700    1.000
    N4566    N        0.76094    0.17558    0.91935    1.000
    Si4567   Si       0.75887    0.23406    0.99742    1.000
    N4568    N        0.77214    0.28976    0.08558    1.000
    N4569    N        0.79849    0.37581    0.09288    1.000
    N4570    N        0.78649    0.26195    0.01758    1.000
    Si4571   Si       0.80106    0.29045    0.11862    1.000
    Si4572   Si       0.78988    0.41801    0.09694    1.000
    N4573    N        0.76153    0.45112    0.02770    1.000
    Si4574   Si       0.80532    0.45115    0.03510    1.000
    Si4575   Si       0.78816    0.38912    0.99855    1.000
    N4576    N        0.81186    0.44696    0.07759    1.000
    N4577    N        0.79643    0.31582    0.21643    1.000
    Si4578   Si       0.78118    0.27762    0.22686    1.000
    N4579    N        0.78678    0.31626    0.15001    1.000
    N4580    N        0.75017    0.47783    0.15650    1.000
    N4581    N        0.79977    0.42560    0.13881    1.000
    Si4582   Si       0.78937    0.49326    0.22299    1.000
    Si4583   Si       0.77702    0.44650    0.17110    1.000
    N4584    N        0.80627    0.46450    0.19637    1.000
    N4585    N        0.78628    0.32543    0.28581    1.000
    N4586    N        0.76098    0.28290    0.33294    1.000
    Si4587   Si       0.77605    0.31149    0.36448    1.000
    N4588    N        0.80864    0.33148    0.34827    1.000
    N4589    N        0.81208    0.38116    0.24494    1.000
    Si4590   Si       0.78639    0.34609    0.24733    1.000
    Si4591   Si       0.78115    0.40957    0.33327    1.000
    N4592    N        0.78829    0.45506    0.33633    1.000
    N4593    N        0.79967    0.49690    0.26464    1.000
    Si4594   Si       0.76134    0.48594    0.34806    1.000
    N4595    N        0.79825    0.34535    0.48494    1.000
    N4596    N        0.79206    0.28572    0.39437    1.000
    Si4597   Si       0.76373    0.37164    0.48899    1.000
    N4598    N        0.81213    0.28417    0.46089    1.000
    N4599    N        0.80731    0.50195    0.48281    1.000
    N4600    N        0.80861    0.44288    0.40996    1.000
    Si4601   Si       0.77355    0.42007    0.41735    1.000
    N4602    N        0.76694    0.39986    0.37737    1.000
    N4603    N        0.77857    0.39362    0.45356    1.000
    N4604    N        0.76267    0.49885    0.38954    1.000
    N4605    N        0.78282    0.31459    0.60503    1.000
    N4606    N        0.75575    0.28454    0.49400    1.000
    Si4607   Si       0.79539    0.30425    0.49553    1.000
    N4608    N        0.76023    0.38361    0.53132    1.000
    N4609    N        0.81305    0.37338    0.60202    1.000
    N4610    N        0.77234    0.43028    0.58506    1.000
    Si4611   Si       0.77340    0.42396    0.54232    1.000
    Si4612   Si       0.79376    0.47318    0.51146    1.000
    N4613    N        0.75541    0.45216    0.51214    1.000
    Si4614   Si       0.80995    0.41703    0.60237    1.000
    N4615    N        0.79230    0.50284    0.54647    1.000
    N4616    N        0.79196    0.29452    0.68496    1.000
    N4617    N        0.77393    0.35782    0.66523    1.000
    Si4618   Si       0.79969    0.34550    0.62986    1.000
    Si4619   Si       0.76240    0.32467    0.69190    1.000
    N4620    N        0.76008    0.32568    0.73625    1.000
    Si4621   Si       0.77958    0.39995    0.67561    1.000
    N4622    N        0.78613    0.48348    0.73977    1.000
    N4623    N        0.80777    0.40371    0.70783    1.000
    N4624    N        0.79978    0.42219    0.64444    1.000
    Si4625   Si       0.79029    0.46394    0.63916    1.000
    N4626    N        0.79901    0.49167    0.67148    1.000
    N4627    N        0.77162    0.33503    0.85221    1.000
    Si4628   Si       0.77663    0.33917    0.77318    1.000
    Si4629   Si       0.78012    0.27163    0.80122    1.000
    N4630    N        0.80318    0.30432    0.78594    1.000
    N4631    N        0.77602    0.26151    0.84482    1.000
    N4632    N        0.80715    0.36854    0.76964    1.000
    Si4633   Si       0.78003    0.29519    0.87085    1.000
    N4634    N        0.77525    0.47422    0.80462    1.000
    Si4635   Si       0.79762    0.40628    0.75116    1.000
    N4636    N        0.79055    0.40825    0.86039    1.000
    Si4637   Si       0.75668    0.46567    0.76636    1.000
    N4638    N        0.75728    0.42176    0.76140    1.000
    Si4639   Si       0.75280    0.49207    0.83687    1.000
    Si4640   Si       0.79384    0.36534    0.87431    1.000
    Si4641   Si       0.76862    0.27282    0.93539    1.000
    N4642    N        0.78353    0.36038    0.91858    1.000
    N4643    N        0.79630    0.29744    0.95553    1.000
    Si4644   Si       0.80848    0.33818    0.94643    1.000
    N4645    N        0.81042    0.35314    0.98707    1.000
    N4646    N        0.81112    0.45385    0.90896    1.000
    Si4647   Si       0.80732    0.49504    0.89506    1.000
    Si4648   Si       0.75285    0.38806    0.93642    1.000
    N4649    N        0.77809    0.41264    0.96321    1.000
    Si4650   Si       0.81139    0.44059    0.95119    1.000
    N4651    N        0.75235    0.48001    0.95043    1.000
    N4652    N        0.78557    0.58168    0.09067    1.000
    N4653    N        0.78239    0.57915    0.01910    1.000
    Si4654   Si       0.77585    0.60417    0.05354    1.000
    Si4655   Si       0.77234    0.54083    0.09762    1.000
    N4656    N        0.80386    0.51374    0.10913    1.000
    Si4657   Si       0.75433    0.54580    0.02205    1.000
    N4658    N        0.77012    0.51630    0.99551    1.000
    N4659    N        0.75335    0.52642    0.06097    1.000
    N4660    N        0.80195    0.63609    0.05678    1.000
    N4661    N        0.76187    0.69488    0.04120    1.000
    Si4662   Si       0.78621    0.72353    0.01621    1.000
    Si4663   Si       0.78211    0.67263    0.07197    1.000
    Si4664   Si       0.80152    0.59974    0.12727    1.000
    N4665    N        0.78721    0.53208    0.20002    1.000
    N4666    N        0.78748    0.59436    0.21568    1.000
    N4667    N        0.76963    0.62033    0.14741    1.000
    Si4668   Si       0.75306    0.51991    0.16899    1.000
    Si4669   Si       0.79212    0.63303    0.23327    1.000
    Si4670   Si       0.75514    0.56487    0.21671    1.000
    N4671    N        0.75509    0.65523    0.21827    1.000
    Si4672   Si       0.76072    0.69325    0.19843    1.000
    Si4673   Si       0.80186    0.75272    0.22163    1.000
    N4674    N        0.76999    0.68842    0.15722    1.000
    Si4675   Si       0.80769    0.70621    0.13901    1.000
    N4676    N        0.79763    0.71228    0.20934    1.000
    Si4677   Si       0.79150    0.57534    0.33332    1.000
    Si4678   Si       0.77838    0.52697    0.28564    1.000
    N4679    N        0.81003    0.55053    0.30150    1.000
    N4680    N        0.75652    0.59424    0.31803    1.000
    N4681    N        0.79856    0.55687    0.37213    1.000
    N4682    N        0.79644    0.63376    0.27679    1.000
    Si4683   Si       0.75690    0.63497    0.29758    1.000
    Si4684   Si       0.77243    0.69006    0.34973    1.000
    N4685    N        0.79050    0.72153    0.32676    1.000
    Si4686   Si       0.79298    0.52631    0.40175    1.000
    N4687    N        0.77566    0.54941    0.43844    1.000
    Si4688   Si       0.77500    0.59284    0.43589    1.000
    Si4689   Si       0.77633    0.53849    0.47957    1.000
    N4690    N        0.76283    0.60582    0.47610    1.000
    Si4691   Si       0.80451    0.60463    0.48746    1.000
    N4692    N        0.78992    0.65661    0.37216    1.000
    Si4693   Si       0.78144    0.70493    0.46258    1.000
    N4694    N        0.76019    0.67091    0.44802    1.000
    N4695    N        0.79504    0.73989    0.43996    1.000
    N4696    N        0.76159    0.70757    0.38878    1.000
    Si4697   Si       0.77715    0.74449    0.40225    1.000
    Si4698   Si       0.75810    0.65883    0.40492    1.000
    Si4699   Si       0.76165    0.58887    0.57602    1.000
    N4700    N        0.80488    0.59534    0.57132    1.000
    N4701    N        0.78393    0.52542    0.61424    1.000
    N4702    N        0.80208    0.56355    0.50417    1.000
    Si4703   Si       0.75044    0.51839    0.54243    1.000
    N4704    N        0.79132    0.66578    0.60551    1.000
    N4705    N        0.79552    0.68891    0.54171    1.000
    N4706    N        0.79703    0.74081    0.59083    1.000
    Si4707   Si       0.80705    0.69886    0.58234    1.000
    Si4708   Si       0.75242    0.69717    0.52699    1.000
    N4709    N        0.75744    0.72397    0.49354    1.000
    N4710    N        0.76927    0.60742    0.62191    1.000
    Si4711   Si       0.76891    0.60162    0.66431    1.000
    N4712    N        0.77123    0.55874    0.66862    1.000
    Si4713   Si       0.80040    0.53141    0.65567    1.000
    N4714    N        0.79326    0.63059    0.68458    1.000
    N4715    N        0.77417    0.69754    0.67899    1.000
    N4716    N        0.80593    0.66995    0.73910    1.000
    Si4717   Si       0.77977    0.66526    0.70812    1.000
    Si4718   Si       0.78843    0.73803    0.68992    1.000
    N4719    N        0.78530    0.59154    0.82805    1.000
    Si4720   Si       0.78721    0.57366    0.78742    1.000
    Si4721   Si       0.77937    0.55746    0.86046    1.000
    N4722    N        0.76413    0.54149    0.76571    1.000
    N4723    N        0.78168    0.51165    0.86323    1.000
    N4724    N        0.80405    0.60631    0.76475    1.000
    Si4725   Si       0.80502    0.51975    0.75693    1.000
    Si4726   Si       0.76983    0.73995    0.78980    1.000
    N4727    N        0.76231    0.65079    0.79232    1.000
    Si4728   Si       0.80213    0.64764    0.77713    1.000
    N4729    N        0.80548    0.70327    0.85463    1.000
    N4730    N        0.80978    0.72075    0.78903    1.000
    N4731    N        0.75762    0.61783    0.91969    1.000
    N4732    N        0.80051    0.52144    0.92798    1.000
    Si4733   Si       0.76526    0.52083    0.95223    1.000
    Si4734   Si       0.80082    0.62169    0.91964    1.000
    N4735    N        0.80920    0.63525    0.87592    1.000
    Si4736   Si       0.79914    0.69482    0.93874    1.000
    N4737    N        0.78867    0.71152    0.97562    1.000
    Si4738   Si       0.78376    0.67014    0.87142    1.000
    Si4739   Si       0.80979    0.74005    0.88056    1.000
    N4740    N        0.76953    0.68286    0.91037    1.000
    N4741    N        0.80359    0.87356    0.03953    1.000
    Si4742   Si       0.80062    0.84967    0.00279    1.000
    N4743    N        0.77521    0.76012    0.08671    1.000
    N4744    N        0.76032    0.75865    0.01560    1.000
    N4745    N        0.75953    0.99549    0.11173    1.000
    N4746    N        0.76580    0.98797    0.04195    1.000
    N4747    N        0.79192    0.93476    0.01011    1.000
    Si4748   Si       0.77875    0.90905    0.04300    1.000
    N4749    N        0.77367    0.93338    0.07951    1.000
    Si4750   Si       0.80916    0.92725    0.10341    1.000
    Si4751   Si       0.77252    0.97340    0.00135    1.000
    N4752    N        0.79628    0.82065    0.12392    1.000
    N4753    N        0.76120    0.76984    0.22230    1.000
    Si4754   Si       0.78034    0.77890    0.12590    1.000
    Si4755   Si       0.77252    0.86872    0.21474    1.000
    Si4756   Si       0.78814    0.85642    0.14580    1.000
    N4757    N        0.80172    0.84894    0.18904    1.000
    N4758    N        0.80594    0.92442    0.19849    1.000
    N4759    N        0.81039    0.89477    0.13647    1.000
    Si4760   Si       0.76512    0.93698    0.20405    1.000
    N4761    N        0.76182    0.94954    0.24471    1.000
    N4762    N        0.75461    0.96417    0.17458    1.000
    Si4763   Si       0.78128    0.81997    0.32134    1.000
    N4764    N        0.80421    0.85686    0.31211    1.000
    N4765    N        0.77586    0.82176    0.36610    1.000
    Si4766   Si       0.78216    0.88957    0.33522    1.000
    N4767    N        0.77082    0.92256    0.30799    1.000
    N4768    N        0.76855    0.99223    0.30194    1.000
    Si4769   Si       0.76602    0.95319    0.33773    1.000
    Si4770   Si       0.76646    0.99144    0.25749    1.000
    Si4771   Si       0.80381    0.99887    0.32444    1.000
    N4772    N        0.80701    0.96464    0.35100    1.000
    N4773    N        0.79043    0.88867    0.25087    1.000
    N4774    N        0.76282    0.91795    0.36996    1.000
    Si4775   Si       0.75597    0.91273    0.26973    1.000
    Si4776   Si       0.80674    0.80523    0.38962    1.000
    N4777    N        0.78520    0.87021    0.41976    1.000
    Si4778   Si       0.77144    0.87934    0.46151    1.000
    N4779    N        0.80893    0.86347    0.47813    1.000
    N4780    N        0.76584    0.98934    0.41576    1.000
    Si4781   Si       0.79542    0.90489    0.39591    1.000
    N4782    N        0.80813    0.93926    0.41655    1.000
    N4783    N        0.80092    0.98527    0.47187    1.000
    Si4784   Si       0.75950    0.99851    0.45832    1.000
    Si4785   Si       0.80226    0.97680    0.39541    1.000
    N4786    N        0.77440    0.92167    0.46907    1.000
    Si4787   Si       0.80969    0.94610    0.45892    1.000
    Si4788   Si       0.76626    0.80981    0.55939    1.000
    N4789    N        0.78295    0.87356    0.58213    1.000
    N4790    N        0.76086    0.79927    0.60040    1.000
    Si4791   Si       0.76437    0.76657    0.49893    1.000
    N4792    N        0.80755    0.81680    0.55681    1.000
    N4793    N        0.80629    0.77710    0.49748    1.000
    N4794    N        0.75119    0.77339    0.54043    1.000
    Si4795   Si       0.75245    0.87717    0.55105    1.000
    N4796    N        0.76294    0.98490    0.54587    1.000
    N4797    N        0.78215    0.93972    0.60162    1.000
    Si4798   Si       0.78292    0.94730    0.55884    1.000
    Si4799   Si       0.78008    0.89914    0.61656    1.000
    N4800    N        0.76293    0.91736    0.53432    1.000
    N4801    N        0.80157    0.00829    0.59405    1.000
    Si4802   Si       0.77397    0.76280    0.62100    1.000
    Si4803   Si       0.76750    0.78949    0.73572    1.000
    Si4804   Si       0.80763    0.83813    0.69173    1.000
    N4805    N        0.76909    0.85425    0.68368    1.000
    N4806    N        0.80464    0.80306    0.71600    1.000
    N4807    N        0.80102    0.76042    0.65584    1.000
    Si4808   Si       0.80849    0.93034    0.67142    1.000
    N4809    N        0.76490    0.93024    0.68051    1.000
    Si4810   Si       0.77202    0.92803    0.73044    1.000
    Si4811   Si       0.78757    0.97809    0.62275    1.000
    N4812    N        0.77779    0.85428    0.78309    1.000
    N4813    N        0.77679    0.78112    0.77594    1.000
    Si4814   Si       0.78477    0.81533    0.80027    1.000
    Si4815   Si       0.78356    0.89506    0.80078    1.000
    N4816    N        0.78253    0.93093    0.77529    1.000
    N4817    N        0.77340    0.99739    0.79026    1.000
    Si4818   Si       0.80483    0.96787    0.78238    1.000
    N4819    N        0.80259    0.81870    0.94427    1.000
    Si4820   Si       0.75933    0.81820    0.94980    1.000
    N4821    N        0.77338    0.76351    0.88194    1.000
    N4822    N        0.76046    0.83459    0.99251    1.000
    N4823    N        0.75046    0.77583    0.94775    1.000
    Si4824   Si       0.75692    0.94990    0.88495    1.000
    N4825    N        0.81141    0.94427    0.94629    1.000
    N4826    N        0.78452    0.88546    0.91845    1.000
    N4827    N        0.79639    0.00211    0.97950    1.000
    N4828    N        0.79805    0.93874    0.87800    1.000
    Si4829   Si       0.81134    0.91823    0.91190    1.000
    Si4830   Si       0.84763    0.03084    0.05561    1.000
    N4831    N        0.82420    0.01415    0.08760    1.000
    N4832    N        0.82236    0.13005    0.01300    1.000
    N4833    N        0.86668    0.13474    0.07143    1.000
    Si4834   Si       0.85640    0.14991    0.03087    1.000
    N4835    N        0.83224    0.18681    0.03500    1.000
    Si4836   Si       0.85229    0.22198    0.05468    1.000
    N4837    N        0.86487    0.20524    0.09463    1.000
    Si4838   Si       0.82761    0.03120    0.21248    1.000
    N4839    N        0.82699    0.06950    0.18696    1.000
    N4840    N        0.86160    0.02339    0.14442    1.000
    Si4841   Si       0.83592    0.06061    0.14350    1.000
    N4842    N        0.86377    0.09096    0.12981    1.000
    N4843    N        0.85110    0.05200    0.24432    1.000
    Si4844   Si       0.87049    0.12141    0.16024    1.000
    N4845    N        0.81499    0.18598    0.21870    1.000
    N4846    N        0.83088    0.13808    0.17144    1.000
    N4847    N        0.85790    0.20636    0.16462    1.000
    Si4848   Si       0.82430    0.18038    0.17574    1.000
    Si4849   Si       0.85051    0.23040    0.12856    1.000
    Si4850   Si       0.83545    0.04527    0.28414    1.000
    Si4851   Si       0.85528    0.03764    0.34935    1.000
    N4852    N        0.86095    0.12568    0.34629    1.000
    N4853    N        0.86660    0.05815    0.31214    1.000
    N4854    N        0.81148    0.03593    0.34454    1.000
    Si4855   Si       0.82018    0.14095    0.33774    1.000
    Si4856   Si       0.82481    0.24386    0.28809    1.000
    N4857    N        0.81587    0.15634    0.29560    1.000
    N4858    N        0.86557    0.22338    0.29452    1.000
    Si4859   Si       0.82457    0.15618    0.25165    1.000
    N4860    N        0.81246    0.17362    0.36714    1.000
    Si4861   Si       0.86618    0.07801    0.48061    1.000
    N4862    N        0.86304    0.05979    0.38416    1.000
    N4863    N        0.84183    0.11185    0.47879    1.000
    N4864    N        0.84187    0.04640    0.46072    1.000
    Si4865   Si       0.85941    0.10255    0.38194    1.000
    N4866    N        0.82390    0.11242    0.40361    1.000
    Si4867   Si       0.85774    0.03633    0.42199    1.000
    Si4868   Si       0.82197    0.12846    0.44414    1.000
    Si4869   Si       0.82860    0.01376    0.48646    1.000
    N4870    N        0.81219    0.22846    0.41716    1.000
    Si4871   Si       0.83477    0.19536    0.39899    1.000
    N4872    N        0.83640    0.16851    0.43581    1.000
    Si4873   Si       0.85213    0.18362    0.47578    1.000
    Si4874   Si       0.81444    0.24037    0.45974    1.000
    N4875    N        0.85168    0.22645    0.47658    1.000
    Si4876   Si       0.83571    0.03403    0.60045    1.000
    N4877    N        0.83151    0.07817    0.58635    1.000
    N4878    N        0.85751    0.12531    0.54966    1.000
    Si4879   Si       0.86171    0.02571    0.53505    1.000
    Si4880   Si       0.83318    0.11602    0.61327    1.000
    Si4881   Si       0.82960    0.12774    0.51729    1.000
    N4882    N        0.81871    0.02988    0.52817    1.000
    Si4883   Si       0.86870    0.08564    0.56277    1.000
    Si4884   Si       0.86213    0.24710    0.57732    1.000
    N4885    N        0.82720    0.16901    0.50586    1.000
    N4886    N        0.81922    0.25357    0.58424    1.000
    Si4887   Si       0.85295    0.18946    0.61582    1.000
    N4888    N        0.86410    0.14677    0.62262    1.000
    N4889    N        0.87195    0.20620    0.57931    1.000
    N4890    N        0.83757    0.10003    0.65350    1.000
    Si4891   Si       0.84727    0.01847    0.72503    1.000
    Si4892   Si       0.84964    0.06197    0.66812    1.000
    N4893    N        0.82570    0.04888    0.70182    1.000
    N4894    N        0.84839    0.02804    0.64070    1.000
    Si4895   Si       0.85650    0.13742    0.66661    1.000
    Si4896   Si       0.81655    0.15493    0.72489    1.000
    N4897    N        0.82762    0.16417    0.68188    1.000
    Si4898   Si       0.85300    0.22815    0.68704    1.000
    N4899    N        0.86860    0.21445    0.64843    1.000
    N4900    N        0.82866    0.10965    0.80051    1.000
    N4901    N        0.83190    0.03863    0.80921    1.000
    Si4902   Si       0.84068    0.07614    0.82797    1.000
    N4903    N        0.86480    0.02449    0.86460    1.000
    N4904    N        0.82093    0.07406    0.86701    1.000
    Si4905   Si       0.84419    0.15103    0.79410    1.000
    N4906    N        0.84016    0.24011    0.83544    1.000
    N4907    N        0.84955    0.16138    0.75221    1.000
    N4908    N        0.81457    0.17190    0.81778    1.000
    N4909    N        0.84995    0.05316    0.97342    1.000
    N4910    N        0.83953    0.11385    0.94414    1.000
    Si4911   Si       0.83903    0.04466    0.89447    1.000
    Si4912   Si       0.86982    0.08307    0.94861    1.000
    N4913    N        0.87597    0.06549    0.91048    1.000
    Si4914   Si       0.82267    0.24384    0.88083    1.000
    N4915    N        0.84911    0.14643    0.87648    1.000
    N4916    N        0.83470    0.18138    0.93828    1.000
    N4917    N        0.84274    0.24633    0.97159    1.000
    N4918    N        0.86091    0.23550    0.90384    1.000
    Si4919   Si       0.85611    0.14751    0.91951    1.000
    Si4920   Si       0.85862    0.21940    0.94409    1.000
    N4921    N        0.83661    0.31178    0.10410    1.000
    Si4922   Si       0.84482    0.34232    0.01151    1.000
    Si4923   Si       0.84901    0.29925    0.06070    1.000
    Si4924   Si       0.83558    0.35505    0.09589    1.000
    N4925    N        0.84518    0.34791    0.05451    1.000
    N4926    N        0.84135    0.30025    0.01642    1.000
    N4927    N        0.83178    0.25763    0.06463    1.000
    Si4928   Si       0.82638    0.48678    0.08201    1.000
    N4929    N        0.81986    0.41241    0.01726    1.000
    N4930    N        0.81789    0.49293    0.03950    1.000
    N4931    N        0.86833    0.48910    0.08963    1.000
    Si4932   Si       0.86861    0.30118    0.13204    1.000
    Si4933   Si       0.81442    0.32979    0.18010    1.000
    N4934    N        0.85387    0.31106    0.16983    1.000
    N4935    N        0.81609    0.37203    0.18005    1.000
    N4936    N        0.85874    0.38137    0.12233    1.000
    N4937    N        0.87227    0.29442    0.23726    1.000
    N4938    N        0.84955    0.50043    0.22273    1.000
    N4939    N        0.85356    0.50415    0.15850    1.000
    Si4940   Si       0.83230    0.40196    0.15318    1.000
    Si4941   Si       0.84867    0.47205    0.18810    1.000
    N4942    N        0.85556    0.42415    0.18405    1.000
    Si4943   Si       0.84117    0.39148    0.21354    1.000
    N4944    N        0.85264    0.34483    0.29052    1.000
    N4945    N        0.83901    0.27935    0.30586    1.000
    Si4946   Si       0.82235    0.31912    0.30868    1.000
    Si4947   Si       0.83971    0.38569    0.28036    1.000
    N4948    N        0.84820    0.46649    0.29434    1.000
    Si4949   Si       0.83122    0.44747    0.32847    1.000
    Si4950   Si       0.84327    0.49989    0.26459    1.000
    N4951    N        0.85900    0.45556    0.36068    1.000
    N4952    N        0.82103    0.40487    0.31485    1.000
    N4953    N        0.87064    0.40630    0.25758    1.000
    N4954    N        0.86759    0.29129    0.42518    1.000
    Si4955   Si       0.81633    0.37076    0.45252    1.000
    Si4956   Si       0.82456    0.29961    0.42111    1.000
    N4957    N        0.81916    0.34246    0.42139    1.000
    N4958    N        0.86994    0.32093    0.49532    1.000
    N4959    N        0.85451    0.38555    0.46484    1.000
    Si4960   Si       0.84383    0.46493    0.40347    1.000
    N4961    N        0.85086    0.32102    0.58041    1.000
    Si4962   Si       0.85272    0.36630    0.58185    1.000
    N4963    N        0.85260    0.37495    0.53835    1.000
    Si4964   Si       0.86088    0.30779    0.53585    1.000
    N4965    N        0.81350    0.30140    0.53383    1.000
    Si4966   Si       0.81211    0.29695    0.57590    1.000
    N4967    N        0.86612    0.26280    0.53656    1.000
    Si4968   Si       0.86166    0.46000    0.59794    1.000
    N4969    N        0.82200    0.47248    0.60618    1.000
    Si4970   Si       0.84967    0.41828    0.53536    1.000
    N4971    N        0.84926    0.42096    0.58122    1.000
    N4972    N        0.81329    0.43648    0.52616    1.000
    N4973    N        0.83415    0.33450    0.65492    1.000
    N4974    N        0.86120    0.26997    0.67676    1.000
    N4975    N        0.84354    0.31587    0.72656    1.000
    Si4976   Si       0.83405    0.30284    0.68574    1.000
    Si4977   Si       0.81840    0.48303    0.70973    1.000
    Si4978   Si       0.84974    0.41373    0.70667    1.000
    N4979    N        0.86664    0.40196    0.66817    1.000
    N4980    N        0.85148    0.45648    0.71570    1.000
    N4981    N        0.86850    0.38985    0.73678    1.000
    Si4982   Si       0.84276    0.30575    0.76758    1.000
    N4983    N        0.86382    0.27067    0.77510    1.000
    N4984    N        0.83558    0.35124    0.86840    1.000
    Si4985   Si       0.85008    0.38562    0.77851    1.000
    N4986    N        0.87222    0.34092    0.77815    1.000
    N4987    N        0.83371    0.45947    0.84071    1.000
    N4988    N        0.83794    0.49115    0.78044    1.000
    N4989    N        0.82924    0.42806    0.77306    1.000
    Si4990   Si       0.86183    0.49256    0.84782    1.000
    Si4991   Si       0.81813    0.45840    0.80132    1.000
    N4992    N        0.85039    0.33857    0.93525    1.000
    Si4993   Si       0.84875    0.31922    0.89452    1.000
    N4994    N        0.81903    0.28868    0.88656    1.000
    Si4995   Si       0.81651    0.27491    0.98975    1.000
    N4996    N        0.84805    0.50728    0.88699    1.000
    Si4997   Si       0.87451    0.46829    0.97536    1.000
    Si4998   Si       0.85617    0.40694    0.99391    1.000
    Si4999   Si       0.82405    0.43220    0.87164    1.000
    N5000    N        0.82870    0.47157    0.97920    1.000
    N5001    N        0.86153    0.41049    0.88120    1.000
    N5002    N        0.84395    0.41242    0.95239    1.000
    N5003    N        0.86170    0.55298    0.10594    1.000
    N5004    N        0.83670    0.62302    0.00165    1.000
    Si5005   Si       0.86817    0.59419    0.09879    1.000
    N5006    N        0.86889    0.60011    0.05606    1.000
    Si5007   Si       0.81406    0.50861    0.00133    1.000
    Si5008   Si       0.84440    0.63440    0.04309    1.000
    N5009    N        0.86229    0.67421    0.04606    1.000
    Si5010   Si       0.81912    0.74413    0.08151    1.000
    N5011    N        0.82452    0.72922    0.03674    1.000
    Si5012   Si       0.86065    0.71182    0.02100    1.000
    Si5013   Si       0.85520    0.68898    0.08705    1.000
    N5014    N        0.86906    0.72964    0.09183    1.000
    N5015    N        0.81238    0.69724    0.09497    1.000
    N5016    N        0.83860    0.62037    0.11824    1.000
    N5017    N        0.81758    0.56823    0.15232    1.000
    Si5018   Si       0.86400    0.62121    0.21236    1.000
    N5019    N        0.85353    0.57722    0.21360    1.000
    Si5020   Si       0.83401    0.53227    0.13320    1.000
    Si5021   Si       0.81552    0.56805    0.19495    1.000
    N5022    N        0.83045    0.64801    0.21736    1.000
    N5023    N        0.83856    0.68340    0.15914    1.000
    Si5024   Si       0.83392    0.68838    0.20126    1.000
    N5025    N        0.81289    0.75073    0.13851    1.000
    Si5026   Si       0.86030    0.64976    0.14305    1.000
    N5027    N        0.86402    0.71554    0.22042    1.000
    Si5028   Si       0.85249    0.56049    0.29871    1.000
    Si5029   Si       0.82966    0.62438    0.30292    1.000
    N5030    N        0.82404    0.60473    0.33939    1.000
    N5031    N        0.86180    0.60042    0.28530    1.000
    N5032    N        0.86851    0.55011    0.33760    1.000
    N5033    N        0.86856    0.53462    0.26860    1.000
    Si5034   Si       0.84222    0.57250    0.36544    1.000
    Si5035   Si       0.82819    0.64438    0.36122    1.000
    N5036    N        0.84280    0.66016    0.32251    1.000
    N5037    N        0.85850    0.74194    0.34315    1.000
    N5038    N        0.82115    0.74838    0.25968    1.000
    Si5039   Si       0.86176    0.72888    0.26217    1.000
    Si5040   Si       0.81727    0.75178    0.33658    1.000
    N5041    N        0.85665    0.55453    0.47041    1.000
    Si5042   Si       0.85402    0.60983    0.42404    1.000
    Si5043   Si       0.86085    0.53531    0.43064    1.000
    N5044    N        0.85897    0.57187    0.40469    1.000
    N5045    N        0.81584    0.60610    0.44461    1.000
    N5046    N        0.83269    0.50750    0.41088    1.000
    N5047    N        0.85815    0.70719    0.40628    1.000
    N5048    N        0.85963    0.75361    0.45754    1.000
    Si5049   Si       0.85612    0.74507    0.38700    1.000
    N5050    N        0.82076    0.69294    0.47642    1.000
    N5051    N        0.85650    0.64010    0.39331    1.000
    Si5052   Si       0.85371    0.71152    0.45263    1.000
    Si5053   Si       0.83893    0.60879    0.54862    1.000
    N5054    N        0.84858    0.52887    0.58234    1.000
    Si5055   Si       0.83372    0.53206    0.50078    1.000
    N5056    N        0.87076    0.51537    0.51533    1.000
    N5057    N        0.81984    0.63052    0.51706    1.000
    Si5058   Si       0.81098    0.50916    0.58372    1.000
    Si5059   Si       0.81247    0.62556    0.60680    1.000
    N5060    N        0.85022    0.63811    0.58059    1.000
    Si5061   Si       0.84233    0.74949    0.58563    1.000
    Si5062   Si       0.82454    0.67184    0.51406    1.000
    N5063    N        0.85089    0.70779    0.58610    1.000
    N5064    N        0.86584    0.67983    0.52753    1.000
    Si5065   Si       0.83727    0.62252    0.68371    1.000
    N5066    N        0.84362    0.54257    0.65414    1.000
    N5067    N        0.83904    0.61655    0.63971    1.000
    Si5068   Si       0.85809    0.54898    0.69502    1.000
    N5069    N        0.84270    0.58659    0.70933    1.000
    N5070    N        0.83206    0.52269    0.71989    1.000
    N5071    N        0.81999    0.73732    0.72114    1.000
    N5072    N        0.85813    0.59741    0.83095    1.000
    Si5073   Si       0.86142    0.52776    0.78311    1.000
    Si5074   Si       0.84537    0.58838    0.75457    1.000
    Si5075   Si       0.82072    0.60240    0.85081    1.000
    N5076    N        0.86581    0.62579    0.76500    1.000
    N5077    N        0.82366    0.55184    0.78137    1.000
    Si5078   Si       0.86525    0.63465    0.80896    1.000
    N5079    N        0.82900    0.65790    0.80822    1.000
    Si5080   Si       0.83138    0.69870    0.82039    1.000
    Si5081   Si       0.82680    0.70784    0.75036    1.000
    N5082    N        0.86511    0.69463    0.76155    1.000
    Si5083   Si       0.82630    0.55574    0.92037    1.000
    N5084    N        0.86740    0.55090    0.93515    1.000
    Si5085   Si       0.81521    0.58634    0.99011    1.000
    N5086    N        0.81368    0.57188    0.88174    1.000
    N5087    N        0.83357    0.54720    0.99604    1.000
    N5088    N        0.81523    0.58956    0.94557    1.000
    Si5089   Si       0.85191    0.65196    0.97130    1.000
    N5090    N        0.85684    0.69696    0.97941    1.000
    Si5091   Si       0.85920    0.72566    0.94738    1.000
    N5092    N        0.81935    0.65417    0.94283    1.000
    N5093    N        0.82488    0.72440    0.91877    1.000
    Si5094   Si       0.83571    0.81734    0.10771    1.000
    N5095    N        0.83773    0.78317    0.07976    1.000
    N5096    N        0.85402    0.85329    0.09444    1.000
    N5097    N        0.83580    0.82160    0.00084    1.000
    Si5098   Si       0.84045    0.87870    0.06017    1.000
    N5099    N        0.83933    0.91985    0.07535    1.000
    Si5100   Si       0.84606    0.99281    0.11959    1.000
    N5101    N        0.82599    0.77935    0.19744    1.000
    Si5102   Si       0.82917    0.82112    0.20905    1.000
    N5103    N        0.85674    0.80539    0.14374    1.000
    Si5104   Si       0.84595    0.76709    0.16177    1.000
    N5105    N        0.87121    0.83513    0.20504    1.000
    Si5106   Si       0.86650    0.95884    0.20707    1.000
    N5107    N        0.85060    0.99868    0.19781    1.000
    N5108    N        0.86855    0.92769    0.17855    1.000
    Si5109   Si       0.82451    0.91412    0.23662    1.000
    Si5110   Si       0.82942    0.92442    0.16183    1.000
    N5111    N        0.82620    0.95604    0.13161    1.000
    Si5112   Si       0.83727    0.78598    0.27781    1.000
    Si5113   Si       0.83659    0.85811    0.34427    1.000
    N5114    N        0.82604    0.82063    0.25315    1.000
    Si5115   Si       0.81646    0.85989    0.27099    1.000
    N5116    N        0.81102    0.78907    0.31440    1.000
    N5117    N        0.85241    0.88390    0.25925    1.000
    Si5118   Si       0.83940    0.93372    0.35260    1.000
    Si5119   Si       0.85720    0.96590    0.28462    1.000
    N5120    N        0.85238    0.93352    0.31261    1.000
    N5121    N        0.81993    0.89529    0.36102    1.000
    N5122    N        0.83205    0.00056    0.29164    1.000
    N5123    N        0.85013    0.94706    0.24634    1.000
    N5124    N        0.84044    0.82603    0.37185    1.000
    N5125    N        0.85158    0.87418    0.42484    1.000
    Si5126   Si       0.81999    0.77233    0.45708    1.000
    Si5127   Si       0.81811    0.85010    0.43666    1.000
    N5128    N        0.81387    0.80705    0.43210    1.000
    N5129    N        0.81164    0.76167    0.38030    1.000
    N5130    N        0.83590    0.00132    0.40615    1.000
    N5131    N        0.85084    0.93607    0.46814    1.000
    N5132    N        0.86980    0.94194    0.38352    1.000
    Si5133   Si       0.87209    0.90051    0.45332    1.000
    Si5134   Si       0.83112    0.79498    0.52728    1.000
    N5135    N        0.84988    0.84932    0.60361    1.000
    N5136    N        0.85721    0.82268    0.50851    1.000
    Si5137   Si       0.82050    0.85405    0.57231    1.000
    Si5138   Si       0.84392    0.86175    0.50302    1.000
    N5139    N        0.85542    0.77734    0.61476    1.000
    N5140    N        0.85435    0.76486    0.54686    1.000
    N5141    N        0.83845    0.87960    0.54172    1.000
    Si5142   Si       0.85574    0.91741    0.55140    1.000
    N5143    N        0.82381    0.94626    0.54543    1.000
    N5144    N        0.86674    0.99758    0.50216    1.000
    N5145    N        0.87689    0.91149    0.58802    1.000
    N5146    N        0.82335    0.82399    0.65480    1.000
    Si5147   Si       0.83747    0.78348    0.65332    1.000
    N5148    N        0.84190    0.86503    0.69535    1.000
    Si5149   Si       0.83811    0.77715    0.72107    1.000
    Si5150   Si       0.84303    0.86240    0.64561    1.000
    N5151    N        0.86499    0.77909    0.68709    1.000
    Si5152   Si       0.85750    0.98717    0.65871    1.000
    N5153    N        0.81350    0.92637    0.71476    1.000
    Si5154   Si       0.83941    0.89587    0.72604    1.000
    N5155    N        0.81900    0.96762    0.65209    1.000
    N5156    N        0.81551    0.89678    0.64301    1.000
    N5157    N        0.87071    0.99245    0.70008    1.000
    N5158    N        0.82612    0.81209    0.81907    1.000
    Si5159   Si       0.83849    0.80965    0.86137    1.000
    Si5160   Si       0.86275    0.81095    0.79590    1.000
    N5161    N        0.84045    0.76530    0.86525    1.000
    N5162    N        0.86057    0.79262    0.75671    1.000
    N5163    N        0.83876    0.88067    0.76560    1.000
    Si5164   Si       0.85670    0.88338    0.80493    1.000
    Si5165   Si       0.82777    0.93849    0.84594    1.000
    N5166    N        0.82865    0.97017    0.81837    1.000
    N5167    N        0.82154    0.90087    0.82553    1.000
    N5168    N        0.82158    0.99743    0.75280    1.000
    Si5169   Si       0.85548    0.00672    0.82527    1.000
    Si5170   Si       0.84062    0.80476    0.95860    1.000
    N5171    N        0.82693    0.84133    0.88674    1.000
    N5172    N        0.85629    0.76722    0.96037    1.000
    N5173    N        0.86461    0.83603    0.93560    1.000
    Si5174   Si       0.82007    0.85786    0.92879    1.000
    N5175    N        0.81865    0.87775    0.97192    1.000
    N5176    N        0.86470    0.92651    0.98290    1.000
    Si5177   Si       0.81751    0.98739    0.94540    1.000
    Si5178   Si       0.82229    0.91898    0.98169    1.000
    N5179    N        0.84821    0.89522    0.90851    1.000
    N5180    N        0.85970    0.99070    0.95166    1.000
    Si5181   Si       0.88171    0.09891    0.09185    1.000
    Si5182   Si       0.91792    0.04372    0.05983    1.000
    N5183    N        0.92576    0.10357    0.09664    1.000
    N5184    N        0.87661    0.06135    0.06707    1.000
    N5185    N        0.87142    0.01188    0.02199    1.000
    N5186    N        0.92633    0.17278    0.08278    1.000
    Si5187   Si       0.90244    0.20326    0.00325    1.000
    N5188    N        0.88719    0.23370    0.03028    1.000
    Si5189   Si       0.88476    0.16677    0.09578    1.000
    N5190    N        0.88859    0.16133    0.00598    1.000
    Si5191   Si       0.92089    0.25296    0.11677    1.000
    Si5192   Si       0.87996    0.07447    0.22319    1.000
    N5193    N        0.88346    0.11174    0.20216    1.000
    N5194    N        0.90620    0.04740    0.19948    1.000
    Si5195   Si       0.88890    0.01332    0.17809    1.000
    N5196    N        0.88937    0.15502    0.13903    1.000
    N5197    N        0.91554    0.17841    0.19962    1.000
    Si5198   Si       0.90132    0.14542    0.22597    1.000
    Si5199   Si       0.89827    0.19020    0.16186    1.000
    N5200    N        0.92550    0.21381    0.13875    1.000
    Si5201   Si       0.90802    0.06517    0.30129    1.000
    N5202    N        0.90987    0.07561    0.25861    1.000
    N5203    N        0.92404    0.09280    0.32902    1.000
    Si5204   Si       0.90532    0.13099    0.33778    1.000
    N5205    N        0.90903    0.16291    0.30713    1.000
    Si5206   Si       0.88809    0.18979    0.27973    1.000
    N5207    N        0.88326    0.25313    0.36037    1.000
    N5208    N        0.92787    0.20207    0.26299    1.000
    N5209    N        0.87021    0.15983    0.25212    1.000
    N5210    N        0.88684    0.12319    0.41099    1.000
    N5211    N        0.90278    0.07880    0.46034    1.000
    Si5212   Si       0.92283    0.10385    0.42908    1.000
    N5213    N        0.89227    0.16931    0.46564    1.000
    Si5214   Si       0.88039    0.16190    0.42524    1.000
    Si5215   Si       0.92623    0.18397    0.48686    1.000
    N5216    N        0.92520    0.25381    0.40977    1.000
    Si5217   Si       0.90740    0.22150    0.37946    1.000
    N5218    N        0.87945    0.19425    0.39751    1.000
    N5219    N        0.89800    0.09296    0.59302    1.000
    Si5220   Si       0.90849    0.01171    0.59446    1.000
    N5221    N        0.87309    0.06609    0.52267    1.000
    N5222    N        0.87113    0.02285    0.57608    1.000
    Si5223   Si       0.90094    0.13643    0.59910    1.000
    Si5224   Si       0.91021    0.19967    0.55967    1.000
    N5225    N        0.90329    0.20856    0.51663    1.000
    Si5226   Si       0.88095    0.24337    0.50346    1.000
    N5227    N        0.92525    0.15976    0.57107    1.000
    N5228    N        0.91972    0.09021    0.74180    1.000
    N5229    N        0.89181    0.06814    0.67894    1.000
    Si5230   Si       0.91809    0.03341    0.67437    1.000
    Si5231   Si       0.91029    0.10198    0.70125    1.000
    N5232    N        0.92985    0.02044    0.71780    1.000
    N5233    N        0.87904    0.21574    0.71995    1.000
    N5234    N        0.88522    0.13761    0.69945    1.000
    Si5235   Si       0.88544    0.17108    0.72846    1.000
    Si5236   Si       0.88787    0.25434    0.64635    1.000
    N5237    N        0.92919    0.15138    0.63161    1.000
    Si5238   Si       0.91634    0.04652    0.75249    1.000
    N5239    N        0.87958    0.08841    0.84280    1.000
    Si5240   Si       0.88122    0.13344    0.85061    1.000
    N5241    N        0.87412    0.04120    0.75015    1.000
    N5242    N        0.88098    0.15546    0.81448    1.000
    N5243    N        0.89864    0.21933    0.78515    1.000
    Si5244   Si       0.91390    0.18077    0.79297    1.000
    N5245    N        0.92003    0.16176    0.75370    1.000
    N5246    N        0.92077    0.14162    0.86644    1.000
    Si5247   Si       0.89073    0.24485    0.75020    1.000
    Si5248   Si       0.87625    0.24606    0.81169    1.000
    Si5249   Si       0.89416    0.05728    0.87078    1.000
    Si5250   Si       0.87554    0.01880    0.97898    1.000
    N5251    N        0.90009    0.10200    0.97276    1.000
    N5252    N        0.91339    0.03701    0.96983    1.000
    Si5253   Si       0.92795    0.07387    0.98790    1.000
    N5254    N        0.89903    0.21047    0.96170    1.000
    Si5255   Si       0.90846    0.14450    0.97137    1.000
    N5256    N        0.89877    0.15007    0.92833    1.000
    N5257    N        0.92973    0.24964    0.91078    1.000
    N5258    N        0.89503    0.29733    0.06004    1.000
    Si5259   Si       0.92185    0.32778    0.08150    1.000
    Si5260   Si       0.91595    0.26421    0.04187    1.000
    N5261    N        0.93010    0.36981    0.08959    1.000
    Si5262   Si       0.91239    0.42622    0.03548    1.000
    N5263    N        0.91936    0.46718    0.05441    1.000
    Si5264   Si       0.89207    0.45440    0.08793    1.000
    Si5265   Si       0.89933    0.39213    0.11066    1.000
    N5266    N        0.88947    0.41531    0.06872    1.000
    Si5267   Si       0.91431    0.50354    0.02860    1.000
    N5268    N        0.88641    0.43535    0.00156    1.000
    N5269    N        0.90324    0.32503    0.12191    1.000
    Si5270   Si       0.92838    0.34166    0.15252    1.000
    N5271    N        0.91957    0.31598    0.18650    1.000
    Si5272   Si       0.88085    0.32007    0.20316    1.000
    N5273    N        0.87284    0.36178    0.21189    1.000
    N5274    N        0.88066    0.26133    0.12612    1.000
    Si5275   Si       0.90276    0.38197    0.23722    1.000
    N5276    N        0.91968    0.41494    0.21115    1.000
    N5277    N        0.89850    0.43413    0.12673    1.000
    N5278    N        0.90224    0.46876    0.18552    1.000
    Si5279   Si       0.92409    0.45724    0.22194    1.000
    N5280    N        0.91941    0.38453    0.15852    1.000
    Si5281   Si       0.89586    0.42730    0.17032    1.000
    N5282    N        0.90294    0.29224    0.30583    1.000
    N5283    N        0.91287    0.34133    0.25776    1.000
    Si5284   Si       0.88341    0.31577    0.27265    1.000
    Si5285   Si       0.87622    0.25956    0.31818    1.000
    Si5286   Si       0.92697    0.30532    0.33967    1.000
    N5287    N        0.90531    0.42628    0.31185    1.000
    Si5288   Si       0.89941    0.45118    0.34844    1.000
    N5289    N        0.90692    0.46834    0.25976    1.000
    N5290    N        0.91373    0.49209    0.33147    1.000
    Si5291   Si       0.88042    0.44052    0.28084    1.000
    N5292    N        0.90596    0.31675    0.37774    1.000
    Si5293   Si       0.88866    0.30254    0.46026    1.000
    Si5294   Si       0.89352    0.27964    0.39373    1.000
    N5295    N        0.90577    0.26680    0.47621    1.000
    N5296    N        0.92295    0.32361    0.44395    1.000
    Si5297   Si       0.91953    0.34615    0.40714    1.000
    N5298    N        0.93077    0.43911    0.37445    1.000
    N5299    N        0.92715    0.48724    0.48730    1.000
    Si5300   Si       0.91484    0.47181    0.44647    1.000
    N5301    N        0.92543    0.42627    0.45466    1.000
    N5302    N        0.87454    0.45207    0.43022    1.000
    Si5303   Si       0.88254    0.41109    0.44230    1.000
    N5304    N        0.90189    0.38492    0.41256    1.000
    N5305    N        0.90541    0.31825    0.55119    1.000
    Si5306   Si       0.89350    0.31090    0.59202    1.000
    N5307    N        0.88587    0.26922    0.60520    1.000
    N5308    N        0.88299    0.37092    0.61487    1.000
    N5309    N        0.91326    0.37191    0.50356    1.000
    Si5310   Si       0.87154    0.36413    0.50022    1.000
    N5311    N        0.92615    0.32708    0.61612    1.000
    Si5312   Si       0.92929    0.36821    0.60127    1.000
    N5313    N        0.89440    0.48149    0.57805    1.000
    N5314    N        0.88504    0.43238    0.51472    1.000
    Si5315   Si       0.91587    0.48469    0.61589    1.000
    Si5316   Si       0.91968    0.41694    0.49763    1.000
    N5317    N        0.92700    0.26162    0.65778    1.000
    N5318    N        0.92021    0.27256    0.73379    1.000
    N5319    N        0.89470    0.34524    0.69068    1.000
    Si5320   Si       0.87620    0.34603    0.72947    1.000
    Si5321   Si       0.86889    0.35905    0.65760    1.000
    N5322    N        0.88915    0.45510    0.63301    1.000
    Si5323   Si       0.89198    0.41239    0.63554    1.000
    N5324    N        0.89931    0.34718    0.84873    1.000
    Si5325   Si       0.90391    0.33843    0.80699    1.000
    N5326    N        0.90538    0.25366    0.84583    1.000
    Si5327   Si       0.86787    0.37841    0.85538    1.000
    N5328    N        0.90161    0.44117    0.77717    1.000
    Si5329   Si       0.90902    0.40913    0.80385    1.000
    N5330    N        0.89829    0.47472    0.86494    1.000
    N5331    N        0.89632    0.49909    0.75608    1.000
    N5332    N        0.87097    0.39431    0.81524    1.000
    Si5333   Si       0.86615    0.46096    0.75933    1.000
    N5334    N        0.87376    0.36852    0.99444    1.000
    N5335    N        0.91607    0.31973    0.96163    1.000
    N5336    N        0.88941    0.30081    0.89470    1.000
    Si5337   Si       0.88701    0.35110    0.95444    1.000
    Si5338   Si       0.92247    0.32664    0.88037    1.000
    Si5339   Si       0.89457    0.25820    0.88809    1.000
    Si5340   Si       0.88474    0.48995    0.90241    1.000
    Si5341   Si       0.87529    0.41743    0.92062    1.000
    N5342    N        0.90333    0.38546    0.93087    1.000
    N5343    N        0.88783    0.50616    0.99446    1.000
    N5344    N        0.88580    0.45936    0.93371    1.000
    N5345    N        0.91046    0.53920    0.05584    1.000
    Si5346   Si       0.90073    0.57821    0.03862    1.000
    Si5347   Si       0.89463    0.52638    0.09465    1.000
    N5348    N        0.90879    0.60210    0.11117    1.000
    N5349    N        0.89716    0.57661    0.99540    1.000
    N5350    N        0.89228    0.73982    0.03008    1.000
    N5351    N        0.88491    0.66965    0.11197    1.000
    Si5352   Si       0.90164    0.74196    0.12016    1.000
    Si5353   Si       0.92841    0.67682    0.11286    1.000
    Si5354   Si       0.91842    0.61478    0.15187    1.000
    N5355    N        0.91760    0.52127    0.13155    1.000
    N5356    N        0.90691    0.53507    0.20043    1.000
    N5357    N        0.88135    0.62815    0.17315    1.000
    Si5358   Si       0.87195    0.53921    0.22563    1.000
    Si5359   Si       0.89812    0.50583    0.16855    1.000
    N5360    N        0.88454    0.74527    0.15937    1.000
    N5361    N        0.89560    0.63786    0.23655    1.000
    N5362    N        0.92560    0.69826    0.21706    1.000
    Si5363   Si       0.89962    0.72877    0.19847    1.000
    Si5364   Si       0.90830    0.53314    0.34355    1.000
    Si5365   Si       0.90133    0.61007    0.26847    1.000
    N5366    N        0.93135    0.58140    0.25264    1.000
    N5367    N        0.91216    0.64328    0.29830    1.000
    N5368    N        0.88379    0.69498    0.27799    1.000
    N5369    N        0.89938    0.68569    0.35443    1.000
    Si5370   Si       0.88362    0.67181    0.31583    1.000
    Si5371   Si       0.91449    0.67525    0.25206    1.000
    Si5372   Si       0.90102    0.52350    0.48755    1.000
    N5373    N        0.89840    0.51539    0.44241    1.000
    N5374    N        0.87870    0.61719    0.45855    1.000
    N5375    N        0.92240    0.54451    0.38255    1.000
    N5376    N        0.91636    0.56445    0.48731    1.000
    Si5377   Si       0.87956    0.58649    0.48976    1.000
    N5378    N        0.93121    0.75313    0.45159    1.000
    Si5379   Si       0.88389    0.67461    0.39315    1.000
    N5380    N        0.91854    0.65788    0.41268    1.000
    Si5381   Si       0.90978    0.64729    0.45517    1.000
    N5382    N        0.88773    0.68459    0.46315    1.000
    N5383    N        0.92831    0.65377    0.49900    1.000
    N5384    N        0.91712    0.54445    0.55061    1.000
    Si5385   Si       0.90639    0.58420    0.56148    1.000
    N5386    N        0.88147    0.58116    0.59784    1.000
    Si5387   Si       0.88213    0.51872    0.55584    1.000
    Si5388   Si       0.87584    0.61978    0.61607    1.000
    N5389    N        0.87582    0.59471    0.53068    1.000
    N5390    N        0.91544    0.67746    0.57487    1.000
    Si5391   Si       0.90060    0.68623    0.50429    1.000
    N5392    N        0.92164    0.75114    0.57821    1.000
    N5393    N        0.92542    0.71832    0.51902    1.000
    Si5394   Si       0.87225    0.67484    0.56888    1.000
    Si5395   Si       0.86902    0.54463    0.61866    1.000
    N5396    N        0.90210    0.54652    0.69837    1.000
    N5397    N        0.90545    0.52500    0.63263    1.000
    Si5398   Si       0.90981    0.53723    0.73993    1.000
    N5399    N        0.86949    0.64758    0.69581    1.000
    Si5400   Si       0.90562    0.65882    0.67262    1.000
    Si5401   Si       0.87904    0.65766    0.73906    1.000
    N5402    N        0.91172    0.70144    0.67938    1.000
    N5403    N        0.90595    0.64482    0.63242    1.000
    N5404    N        0.91359    0.73826    0.74522    1.000
    Si5405   Si       0.88837    0.56541    0.83422    1.000
    Si5406   Si       0.91848    0.61223    0.84984    1.000
    N5407    N        0.87971    0.56048    0.75950    1.000
    N5408    N        0.92479    0.58320    0.81634    1.000
    N5409    N        0.87496    0.52569    0.82500    1.000
    N5410    N        0.90185    0.64755    0.83209    1.000
    Si5411   Si       0.90907    0.68857    0.84241    1.000
    Si5412   Si       0.90668    0.70341    0.76968    1.000
    Si5413   Si       0.87833    0.75289    0.84391    1.000
    N5414    N        0.91941    0.66943    0.74756    1.000
    N5415    N        0.90931    0.75224    0.87223    1.000
    N5416    N        0.87155    0.71163    0.83453    1.000
    N5417    N        0.90202    0.57578    0.87498    1.000
    Si5418   Si       0.87309    0.54574    0.97801    1.000
    Si5419   Si       0.90458    0.55672    0.91304    1.000
    Si5420   Si       0.91935    0.60548    0.97155    1.000
    N5421    N        0.91910    0.51583    0.91233    1.000
    N5422    N        0.92913    0.58440    0.93533    1.000
    N5423    N        0.89555    0.71195    0.93107    1.000
    N5424    N        0.89398    0.64096    0.96356    1.000
    Si5425   Si       0.92420    0.72426    0.90291    1.000
    Si5426   Si       0.91287    0.67876    0.95449    1.000
    N5427    N        0.88981    0.80610    0.04718    1.000
    Si5428   Si       0.89200    0.87067    0.10682    1.000
    N5429    N        0.91770    0.77231    0.09135    1.000
    Si5430   Si       0.87834    0.76641    0.06473    1.000
    Si5431   Si       0.87266    0.83505    0.01799    1.000
    Si5432   Si       0.92673    0.81107    0.07114    1.000
    N5433    N        0.87310    0.87556    0.03189    1.000
    N5434    N        0.92982    0.84636    0.09703    1.000
    Si5435   Si       0.90678    0.98286    0.02346    1.000
    N5436    N        0.88274    0.97942    0.09661    1.000
    N5437    N        0.90314    0.91088    0.09883    1.000
    Si5438   Si       0.89245    0.91157    0.01448    1.000
    N5439    N        0.89722    0.94484    0.03987    1.000
    Si5440   Si       0.87971    0.94062    0.07820    1.000
    Si5441   Si       0.92274    0.99436    0.11289    1.000
    Si5442   Si       0.88537    0.82885    0.16571    1.000
    N5443    N        0.90157    0.86886    0.15147    1.000
    N5444    N        0.91134    0.76794    0.21787    1.000
    Si5445   Si       0.88356    0.85854    0.24020    1.000
    N5446    N        0.92442    0.80889    0.16237    1.000
    N5447    N        0.91488    0.88581    0.22277    1.000
    N5448    N        0.92345    0.99341    0.15608    1.000
    Si5449   Si       0.90364    0.90226    0.18038    1.000
    N5450    N        0.90570    0.97407    0.21361    1.000
    N5451    N        0.89379    0.80069    0.33384    1.000
    N5452    N        0.89564    0.83110    0.27065    1.000
    Si5453   Si       0.90271    0.83618    0.31197    1.000
    Si5454   Si       0.91544    0.79494    0.25335    1.000
    N5455    N        0.87708    0.76688    0.27958    1.000
    N5456    N        0.87170    0.86815    0.32223    1.000
    Si5457   Si       0.89074    0.76020    0.31936    1.000
    N5458    N        0.89853    0.98027    0.28555    1.000
    N5459    N        0.91543    0.90929    0.29075    1.000
    Si5460   Si       0.91408    0.99453    0.32340    1.000
    Si5461   Si       0.92447    0.98198    0.25261    1.000
    N5462    N        0.88107    0.00213    0.35097    1.000
    Si5463   Si       0.87328    0.90076    0.29473    1.000
    Si5464   Si       0.88246    0.81180    0.37482    1.000
    N5465    N        0.88247    0.77670    0.39930    1.000
    N5466    N        0.91125    0.84211    0.38823    1.000
    Si5467   Si       0.89508    0.77635    0.44306    1.000
    N5468    N        0.90173    0.81907    0.45262    1.000
    Si5469   Si       0.91653    0.85410    0.42983    1.000
    N5470    N        0.88118    0.87917    0.48772    1.000
    Si5471   Si       0.87473    0.98548    0.38964    1.000
    N5472    N        0.93170    0.95994    0.40955    1.000
    N5473    N        0.91585    0.96117    0.47030    1.000
    Si5474   Si       0.90873    0.92490    0.39305    1.000
    N5475    N        0.90996    0.90051    0.42942    1.000
    Si5476   Si       0.92601    0.99105    0.44153    1.000
    N5477    N        0.89376    0.01064    0.42106    1.000
    Si5478   Si       0.87980    0.95688    0.49086    1.000
    N5479    N        0.89703    0.81220    0.57146    1.000
    N5480    N        0.91478    0.78395    0.51012    1.000
    Si5481   Si       0.89692    0.77443    0.55008    1.000
    Si5482   Si       0.87415    0.81341    0.60623    1.000
    N5483    N        0.92530    0.84909    0.52038    1.000
    Si5484   Si       0.90174    0.82091    0.49630    1.000
    Si5485   Si       0.91446    0.89300    0.51502    1.000
    N5486    N        0.89011    0.93262    0.52610    1.000
    N5487    N        0.91339    0.96822    0.58845    1.000
    Si5488   Si       0.92350    0.94937    0.55124    1.000
    Si5489   Si       0.90616    0.79550    0.68149    1.000
    N5490    N        0.91002    0.83401    0.70370    1.000
    N5491    N        0.90310    0.81505    0.64029    1.000
    Si5492   Si       0.88704    0.86993    0.69329    1.000
    Si5493   Si       0.92450    0.85313    0.63567    1.000
    N5494    N        0.88748    0.87666    0.64923    1.000
    N5495    N        0.91129    0.00897    0.63837    1.000
    Si5496   Si       0.92812    0.96424    0.63561    1.000
    N5497    N        0.88246    0.90586    0.71706    1.000
    Si5498   Si       0.91013    0.97891    0.71239    1.000
    Si5499   Si       0.88895    0.91494    0.62896    1.000
    N5500    N        0.88017    0.95248    0.64765    1.000
    Si5501   Si       0.90160    0.77709    0.76308    1.000
    N5502    N        0.88935    0.77362    0.80709    1.000
    Si5503   Si       0.91721    0.87257    0.80050    1.000
    N5504    N        0.88264    0.84834    0.80583    1.000
    N5505    N        0.88045    0.81622    0.87198    1.000
    N5506    N        0.89551    0.98891    0.81474    1.000
    Si5507   Si       0.89938    0.94527    0.81953    1.000
    N5508    N        0.88954    0.91118    0.79559    1.000
    Si5509   Si       0.90557    0.91209    0.75245    1.000
    N5510    N        0.92249    0.95269    0.74703    1.000
    N5511    N        0.87189    0.93780    0.85688    1.000
    N5512    N        0.92299    0.79004    0.92871    1.000
    Si5513   Si       0.91419    0.79285    0.88684    1.000
    Si5514   Si       0.90331    0.82307    0.94929    1.000
    N5515    N        0.90647    0.83198    0.99184    1.000
    N5516    N        0.90509    0.87995    0.88704    1.000
    Si5517   Si       0.86799    0.85500    0.89466    1.000
    Si5518   Si       0.88336    0.91745    0.89356    1.000
    N5519    N        0.90394    0.94039    0.92275    1.000
    N5520    N        0.91493    0.97552    0.98121    1.000
    Si5521   Si       0.88351    0.95493    0.95732    1.000
    Si5522   Si       0.95184    0.07065    0.11009    1.000
    Si5523   Si       0.97435    0.08739    0.03978    1.000
    N5524    N        0.98139    0.06999    0.07916    1.000
    N5525    N        0.96605    0.12901    0.04575    1.000
    N5526    N        0.92720    0.03563    0.10238    1.000
    N5527    N        0.93326    0.07249    0.03077    1.000
    Si5528   Si       0.95099    0.13802    0.08584    1.000
    N5529    N        0.94063    0.19752    0.02455    1.000
    Si5530   Si       0.95123    0.20559    0.06638    1.000
    Si5531   Si       0.96265    0.16223    0.01591    1.000
    N5532    N        0.98409    0.15066    0.11335    1.000
    N5533    N        0.93700    0.24435    0.07632    1.000
    N5534    N        0.99026    0.12909    0.18445    1.000
    N5535    N        0.96973    0.08500    0.14653    1.000
    N5536    N        0.97380    0.07643    0.22224    1.000
    Si5537   Si       0.93829    0.05582    0.23223    1.000
    Si5538   Si       0.99275    0.08388    0.18411    1.000
    Si5539   Si       0.94367    0.20466    0.22324    1.000
    N5540    N        0.98373    0.18838    0.22526    1.000
    N5541    N        0.94136    0.13977    0.24421    1.000
    N5542    N        0.94763    0.23950    0.19804    1.000
    Si5543   Si       0.96099    0.22856    0.15783    1.000
    Si5544   Si       0.98017    0.14528    0.22276    1.000
    Si5545   Si       0.96943    0.02744    0.28381    1.000
    Si5546   Si       0.95061    0.09844    0.36335    1.000
    N5547    N        0.93402    0.02981    0.31035    1.000
    N5548    N        0.95025    0.01629    0.24700    1.000
    Si5549   Si       0.97572    0.23813    0.34730    1.000
    N5550    N        0.97737    0.16338    0.30877    1.000
    Si5551   Si       0.95963    0.16926    0.34974    1.000
    Si5552   Si       0.94625    0.16420    0.27997    1.000
    N5553    N        0.94419    0.20895    0.35799    1.000
    N5554    N        0.93756    0.13939    0.36747    1.000
    Si5555   Si       0.96445    0.04244    0.41430    1.000
    N5556    N        0.95459    0.01994    0.45209    1.000
    Si5557   Si       0.98225    0.04534    0.47595    1.000
    N5558    N        0.94321    0.07829    0.40224    1.000
    N5559    N        0.96947    0.01267    0.38431    1.000
    Si5560   Si       0.97605    0.13251    0.48470    1.000
    N5561    N        0.95107    0.13051    0.44762    1.000
    Si5562   Si       0.93644    0.25029    0.45510    1.000
    N5563    N        0.95235    0.21083    0.46599    1.000
    N5564    N        0.95368    0.09706    0.55625    1.000
    N5565    N        0.97258    0.04236    0.51743    1.000
    N5566    N        0.94470    0.03164    0.57959    1.000
    Si5567   Si       0.94028    0.07447    0.58950    1.000
    Si5568   Si       0.97145    0.01190    0.54990    1.000
    N5569    N        0.96590    0.08794    0.62257    1.000
    Si5570   Si       0.98768    0.08416    0.52560    1.000
    Si5571   Si       0.95931    0.14081    0.54826    1.000
    N5572    N        0.94511    0.15388    0.50927    1.000
    Si5573   Si       0.95141    0.17990    0.60438    1.000
    N5574    N        0.94400    0.21917    0.58058    1.000
    Si5575   Si       0.97719    0.24583    0.58546    1.000
    N5576    N        0.98475    0.15567    0.58399    1.000
    N5577    N        0.94991    0.10907    0.68373    1.000
    N5578    N        0.96078    0.04217    0.66768    1.000
    Si5579   Si       0.97636    0.08386    0.66416    1.000
    Si5580   Si       0.97156    0.02374    0.70544    1.000
    Si5581   Si       0.98545    0.01125    0.64593    1.000
    Si5582   Si       0.97990    0.21190    0.67718    1.000
    Si5583   Si       0.95497    0.15004    0.66618    1.000
    Si5584   Si       0.95887    0.17636    0.73895    1.000
    N5585    N        0.96756    0.20215    0.63755    1.000
    N5586    N        0.96151    0.17923    0.69730    1.000
    N5587    N        0.97711    0.24729    0.69955    1.000
    Si5588   Si       0.94772    0.06857    0.81943    1.000
    Si5589   Si       0.93847    0.12166    0.76425    1.000
    N5590    N        0.93877    0.10881    0.80549    1.000
    N5591    N        0.98276    0.11079    0.85204    1.000
    N5592    N        0.98815    0.06728    0.80367    1.000
    N5593    N        0.93573    0.05308    0.85882    1.000
    N5594    N        0.93270    0.03789    0.79173    1.000
    Si5595   Si       0.95160    0.13805    0.83602    1.000
    Si5596   Si       0.97839    0.21053    0.80250    1.000
    N5597    N        0.97018    0.21260    0.75931    1.000
    N5598    N        0.95118    0.17631    0.81331    1.000
    N5599    N        0.97045    0.24673    0.82121    1.000
    N5600    N        0.97657    0.13958    0.75366    1.000
    N5601    N        0.97853    0.00881    0.97028    1.000
    N5602    N        0.96560    0.11931    0.91678    1.000
    Si5603   Si       0.97897    0.11807    0.95804    1.000
    N5604    N        0.96791    0.08026    0.97350    1.000
    Si5605   Si       0.95848    0.02271    0.88120    1.000
    Si5606   Si       0.93557    0.14933    0.90489    1.000
    N5607    N        0.96816    0.22939    0.96534    1.000
    Si5608   Si       0.93611    0.21771    0.93923    1.000
    N5609    N        0.95133    0.14583    0.97890    1.000
    N5610    N        0.95445    0.18747    0.91313    1.000
    N5611    N        0.94970    0.27961    0.01554    1.000
    N5612    N        0.96351    0.31658    0.07372    1.000
    Si5613   Si       0.98002    0.30430    0.03608    1.000
    N5614    N        0.97734    0.33218    0.00121    1.000
    N5615    N        0.95157    0.40984    0.03250    1.000
    N5616    N        0.96561    0.42966    0.09496    1.000
    Si5617   Si       0.95907    0.46490    0.07131    1.000
    Si5618   Si       0.96264    0.39185    0.07056    1.000
    N5619    N        0.98967    0.29591    0.19885    1.000
    N5620    N        0.95335    0.27008    0.14209    1.000
    N5621    N        0.97194    0.33503    0.14310    1.000
    Si5622   Si       0.94978    0.28365    0.18530    1.000
    N5623    N        0.97584    0.36549    0.20365    1.000
    N5624    N        0.96767    0.47784    0.14531    1.000
    N5625    N        0.98076    0.42431    0.16919    1.000
    Si5626   Si       0.98642    0.44283    0.12896    1.000
    Si5627   Si       0.98598    0.46558    0.18239    1.000
    N5628    N        0.96507    0.47096    0.21919    1.000
    Si5629   Si       0.97697    0.50620    0.24130    1.000
    Si5630   Si       0.95178    0.39699    0.18521    1.000
    Si5631   Si       0.96924    0.36900    0.34721    1.000
    Si5632   Si       0.94733    0.34409    0.28141    1.000
    N5633    N        0.94705    0.34079    0.32426    1.000
    N5634    N        0.95355    0.27523    0.35513    1.000
    N5635    N        0.98003    0.32888    0.25919    1.000
    Si5636   Si       0.98459    0.37123    0.24643    1.000
    Si5637   Si       0.93213    0.48477    0.29114    1.000
    N5638    N        0.95088    0.38887    0.26760    1.000
    Si5639   Si       0.94705    0.42022    0.29885    1.000
    N5640    N        0.96579    0.45961    0.29616    1.000
    N5641    N        0.97721    0.40654    0.32735    1.000
    N5642    N        0.97161    0.27714    0.45604    1.000
    Si5643   Si       0.96013    0.31788    0.46667    1.000
    N5644    N        0.95634    0.36788    0.38964    1.000
    Si5645   Si       0.96423    0.27209    0.39851    1.000
    N5646    N        0.98481    0.34904    0.44827    1.000
    N5647    N        0.97936    0.42993    0.41558    1.000
    N5648    N        0.94583    0.48604    0.41844    1.000
    Si5649   Si       0.93930    0.40766    0.41059    1.000
    Si5650   Si       0.96489    0.46063    0.38987    1.000
    N5651    N        0.95892    0.32273    0.51140    1.000
    N5652    N        0.94935    0.37414    0.56328    1.000
    N5653    N        0.97420    0.28143    0.60830    1.000
    Si5654   Si       0.93266    0.34759    0.53302    1.000
    N5655    N        0.98692    0.26227    0.54315    1.000
    Si5656   Si       0.97737    0.40704    0.54994    1.000
    Si5657   Si       0.96008    0.47186    0.51165    1.000
    N5658    N        0.96196    0.48998    0.55013    1.000
    N5659    N        0.95583    0.42910    0.51934    1.000
    N5660    N        0.95839    0.48071    0.61919    1.000
    Si5661   Si       0.98622    0.47724    0.58484    1.000
    Si5662   Si       0.94367    0.27344    0.69558    1.000
    Si5663   Si       0.94638    0.29646    0.63861    1.000
    N5664    N        0.96814    0.37403    0.67858    1.000
    N5665    N        0.95907    0.31309    0.67687    1.000
    Si5666   Si       0.93787    0.34800    0.69425    1.000
    N5667    N        0.94243    0.33972    0.73730    1.000
    N5668    N        0.96954    0.44325    0.67910    1.000
    N5669    N        0.96338    0.40738    0.74268    1.000
    Si5670   Si       0.98047    0.44009    0.71969    1.000
    N5671    N        0.93635    0.40353    0.62732    1.000
    Si5672   Si       0.97454    0.48384    0.65983    1.000
    Si5673   Si       0.97161    0.40880    0.65425    1.000
    N5674    N        0.96562    0.47422    0.74473    1.000
    Si5675   Si       0.96176    0.36958    0.76252    1.000
    Si5676   Si       0.94105    0.27598    0.83416    1.000
    Si5677   Si       0.94492    0.29936    0.75967    1.000
    N5678    N        0.95622    0.29875    0.87010    1.000
    N5679    N        0.92996    0.30204    0.80070    1.000
    N5680    N        0.98627    0.28863    0.75145    1.000
    N5681    N        0.93051    0.37187    0.79274    1.000
    N5682    N        0.98801    0.36376    0.84386    1.000
    N5683    N        0.93482    0.41997    0.83999    1.000
    Si5684   Si       0.97014    0.40149    0.85714    1.000
    N5685    N        0.94633    0.48036    0.81082    1.000
    Si5686   Si       0.93643    0.46192    0.84929    1.000
    Si5687   Si       0.98350    0.49565    0.82643    1.000
    N5688    N        0.96748    0.48290    0.86964    1.000
    Si5689   Si       0.93084    0.47191    0.77035    1.000
    Si5690   Si       0.98426    0.33412    0.87447    1.000
    Si5691   Si       0.96668    0.27297    0.90544    1.000
    N5692    N        0.97801    0.29958    0.93821    1.000
    N5693    N        0.95186    0.35347    0.89689    1.000
    Si5694   Si       0.95313    0.30439    0.97686    1.000
    N5695    N        0.96139    0.41915    0.89928    1.000
    Si5696   Si       0.94647    0.38626    0.92431    1.000
    N5697    N        0.96515    0.38938    0.96239    1.000
    Si5698   Si       0.97627    0.41782    0.99597    1.000
    Si5699   Si       0.95633    0.53702    0.05498    1.000
    N5700    N        0.97419    0.59576    0.10093    1.000
    Si5701   Si       0.94010    0.61789    0.08597    1.000
    Si5702   Si       0.96523    0.62699    0.02545    1.000
    N5703    N        0.93628    0.60251    0.04489    1.000
    N5704    N        0.95468    0.51067    0.01810    1.000
    N5705    N        0.96142    0.50860    0.08591    1.000
    Si5706   Si       0.93151    0.73548    0.01193    1.000
    Si5707   Si       0.97921    0.68744    0.05499    1.000
    N5708    N        0.96043    0.72685    0.04571    1.000
    N5709    N        0.94927    0.66138    0.07717    1.000
    N5710    N        0.98249    0.66775    0.01251    1.000
    N5711    N        0.93953    0.71866    0.11098    1.000
    Si5712   Si       0.95558    0.75277    0.07965    1.000
    Si5713   Si       0.93947    0.56379    0.21100    1.000
    Si5714   Si       0.97996    0.58805    0.14345    1.000
    Si5715   Si       0.95917    0.51582    0.12834    1.000
    N5716    N        0.97562    0.53764    0.21151    1.000
    N5717    N        0.94625    0.58848    0.17302    1.000
    N5718    N        0.98962    0.54382    0.14259    1.000
    Si5719   Si       0.97501    0.72785    0.13792    1.000
    Si5720   Si       0.98349    0.65459    0.15542    1.000
    N5721    N        0.94177    0.65089    0.14334    1.000
    N5722    N        0.94889    0.73490    0.17401    1.000
    Si5723   Si       0.96570    0.70476    0.20035    1.000
    Si5724   Si       0.95387    0.56012    0.28314    1.000
    N5725    N        0.94721    0.51866    0.27124    1.000
    Si5726   Si       0.95510    0.56676    0.36671    1.000
    N5727    N        0.93923    0.55860    0.32437    1.000
    N5728    N        0.98304    0.62433    0.30728    1.000
    N5729    N        0.92801    0.73818    0.32634    1.000
    Si5730   Si       0.98556    0.63549    0.34856    1.000
    Si5731   Si       0.93674    0.70749    0.35578    1.000
    Si5732   Si       0.95172    0.65527    0.30240    1.000
    N5733    N        0.95591    0.68111    0.26972    1.000
    N5734    N        0.96240    0.67250    0.34130    1.000
    Si5735   Si       0.96167    0.75725    0.30801    1.000
    N5736    N        0.96170    0.61056    0.37534    1.000
    N5737    N        0.95954    0.55259    0.43769    1.000
    N5738    N        0.94646    0.61950    0.45143    1.000
    Si5739   Si       0.95220    0.58000    0.46961    1.000
    Si5740   Si       0.93199    0.52688    0.41968    1.000
    Si5741   Si       0.95586    0.63445    0.41100    1.000
    Si5742   Si       0.96606    0.63690    0.48574    1.000
    Si5743   Si       0.96455    0.74548    0.42858    1.000
    N5744    N        0.95970    0.72957    0.38569    1.000
    Si5745   Si       0.95804    0.53108    0.54511    1.000
    N5746    N        0.97095    0.55125    0.58138    1.000
    Si5747   Si       0.96049    0.58601    0.60659    1.000
    N5748    N        0.93339    0.61095    0.58330    1.000
    N5749    N        0.97718    0.59742    0.50224    1.000
    N5750    N        0.98845    0.53591    0.51162    1.000
    N5751    N        0.97583    0.72204    0.57333    1.000
    Si5752   Si       0.93762    0.65174    0.60168    1.000
    N5753    N        0.97418    0.67093    0.61363    1.000
    Si5754   Si       0.93362    0.71322    0.56113    1.000
    Si5755   Si       0.94093    0.75050    0.49412    1.000
    Si5756   Si       0.92806    0.54151    0.66657    1.000
    Si5757   Si       0.96543    0.60175    0.68128    1.000
    N5758    N        0.96125    0.51674    0.68565    1.000
    Si5759   Si       0.97579    0.53383    0.72244    1.000
    N5760    N        0.94927    0.57928    0.64836    1.000
    N5761    N        0.97552    0.57867    0.71475    1.000
    Si5762   Si       0.93352    0.72869    0.70607    1.000
    N5763    N        0.94333    0.63973    0.68871    1.000
    Si5764   Si       0.95543    0.66155    0.72584    1.000
    N5765    N        0.96802    0.70387    0.72007    1.000
    Si5766   Si       0.95814    0.56210    0.79555    1.000
    N5767    N        0.94912    0.53989    0.76024    1.000
    N5768    N        0.97875    0.53878    0.82726    1.000
    Si5769   Si       0.97251    0.72140    0.81057    1.000
    N5770    N        0.93145    0.70432    0.80759    1.000
    N5771    N        0.98434    0.64204    0.74884    1.000
    N5772    N        0.94629    0.62410    0.87960    1.000
    N5773    N        0.96879    0.55330    0.89009    1.000
    Si5774   Si       0.95935    0.59223    0.90704    1.000
    N5775    N        0.96055    0.61287    0.98494    1.000
    Si5776   Si       0.95941    0.51159    0.90285    1.000
    N5777    N        0.96193    0.73407    0.92168    1.000
    N5778    N        0.95288    0.66902    0.93914    1.000
    Si5779   Si       0.95905    0.66060    0.89724    1.000
    Si5780   Si       0.97107    0.68656    0.97481    1.000
    N5781    N        0.93191    0.68955    0.87863    1.000
    N5782    N        0.93186    0.70050    0.98678    1.000
    N5783    N        0.96407    0.79515    0.05475    1.000
    Si5784   Si       0.96597    0.86686    0.08573    1.000
    Si5785   Si       0.97557    0.79667    0.01248    1.000
    N5786    N        0.97431    0.84097    0.00274    1.000
    N5787    N        0.97944    0.96137    0.02758    1.000
    N5788    N        0.95899    0.90435    0.06119    1.000
    N5789    N        0.95310    0.96521    0.09593    1.000
    Si5790   Si       0.97090    0.98643    0.06180    1.000
    Si5791   Si       0.96385    0.91923    0.02140    1.000
    Si5792   Si       0.94472    0.92305    0.09732    1.000
    N5793    N        0.93428    0.00618    0.04570    1.000
    N5794    N        0.96822    0.89452    0.12032    1.000
    N5795    N        0.94677    0.82091    0.23361    1.000
    N5796    N        0.97846    0.82065    0.12904    1.000
    Si5797   Si       0.95182    0.85962    0.22007    1.000
    Si5798   Si       0.94177    0.84405    0.14181    1.000
    Si5799   Si       0.94115    0.77813    0.18846    1.000
    N5800    N        0.96498    0.86066    0.17827    1.000
    Si5801   Si       0.97804    0.79284    0.24189    1.000
    N5802    N        0.98412    0.79145    0.19637    1.000
    Si5803   Si       0.97391    0.90146    0.16341    1.000
    N5804    N        0.98244    0.97750    0.19731    1.000
    Si5805   Si       0.98890    0.97718    0.24026    1.000
    N5806    N        0.94069    0.92538    0.17435    1.000
    Si5807   Si       0.94130    0.96664    0.18681    1.000
    N5808    N        0.94172    0.84597    0.32497    1.000
    N5809    N        0.95098    0.77626    0.27257    1.000
    N5810    N        0.97447    0.78650    0.33762    1.000
    Si5811   Si       0.97946    0.82701    0.32980    1.000
    Si5812   Si       0.94375    0.86233    0.36592    1.000
    N5813    N        0.97094    0.88260    0.25140    1.000
    Si5814   Si       0.94069    0.92288    0.32285    1.000
    Si5815   Si       0.93706    0.91092    0.25393    1.000
    N5816    N        0.94151    0.96487    0.33786    1.000
    N5817    N        0.98143    0.91757    0.31002    1.000
    N5818    N        0.95474    0.95056    0.25007    1.000
    N5819    N        0.93478    0.90476    0.36309    1.000
    N5820    N        0.96001    0.85444    0.43614    1.000
    N5821    N        0.97612    0.78474    0.41283    1.000
    Si5822   Si       0.98343    0.76698    0.37462    1.000
    N5823    N        0.98468    0.84545    0.37087    1.000
    Si5824   Si       0.98671    0.82493    0.41853    1.000
    Si5825   Si       0.95766    0.97021    0.37723    1.000
    N5826    N        0.98115    0.93050    0.44161    1.000
    Si5827   Si       0.93888    0.92984    0.45040    1.000
    Si5828   Si       0.98344    0.88792    0.45185    1.000
    N5829    N        0.94754    0.90274    0.48776    1.000
    N5830    N        0.96363    0.80063    0.56055    1.000
    Si5831   Si       0.96262    0.76265    0.58727    1.000
    Si5832   Si       0.93333    0.83273    0.55918    1.000
    N5833    N        0.98203    0.76085    0.50502    1.000
    N5834    N        0.93699    0.85981    0.59362    1.000
    Si5835   Si       0.98051    0.90414    0.51908    1.000
    Si5836   Si       0.94876    0.90031    0.59146    1.000
    N5837    N        0.94617    0.91077    0.54917    1.000
    N5838    N        0.94982    0.97914    0.53341    1.000
    N5839    N        0.99204    0.90797    0.60183    1.000
    N5840    N        0.98215    0.77429    0.62353    1.000
    N5841    N        0.94142    0.76646    0.68321    1.000
    N5842    N        0.95974    0.85366    0.65570    1.000
    Si5843   Si       0.94153    0.84203    0.73418    1.000
    N5844    N        0.98210    0.85009    0.72209    1.000
    Si5845   Si       0.98091    0.76780    0.66554    1.000
    Si5846   Si       0.97858    0.95626    0.69470    1.000
    N5847    N        0.97164    0.97496    0.62821    1.000
    N5848    N        0.93664    0.96266    0.68249    1.000
    N5849    N        0.98533    0.94276    0.73670    1.000
    N5850    N        0.93104    0.92000    0.62755    1.000
    Si5851   Si       0.97300    0.79123    0.77739    1.000
    Si5852   Si       0.97317    0.79759    0.84149    1.000
    N5853    N        0.96527    0.76536    0.81050    1.000
    N5854    N        0.93506    0.80496    0.75587    1.000
    N5855    N        0.94869    0.88089    0.82985    1.000
    N5856    N        0.98023    0.82586    0.80411    1.000
    Si5857   Si       0.98648    0.86724    0.81329    1.000
    N5858    N        0.92808    0.87500    0.75933    1.000
    N5859    N        0.96147    0.99464    0.84996    1.000
    N5860    N        0.94162    0.94816    0.81064    1.000
    Si5861   Si       0.96899    0.95225    0.84499    1.000
    Si5862   Si       0.95788    0.95576    0.76902    1.000
    N5863    N        0.97734    0.99110    0.78652    1.000
    Si5864   Si       0.93820    0.99912    0.81091    1.000
    N5865    N        0.94936    0.81198    0.87567    1.000
    N5866    N        0.97811    0.86640    0.89585    1.000
    Si5867   Si       0.95800    0.76968    0.94653    1.000
    Si5868   Si       0.96177    0.83178    0.91503    1.000
    Si5869   Si       0.94009    0.86050    0.98486    1.000
    N5870    N        0.93507    0.85269    0.94158    1.000
    N5871    N        0.98438    0.80304    0.93886    1.000
    N5872    N        0.95283    0.76805    0.99072    1.000
    Si5873   Si       0.94644    0.88821    0.87384    1.000
    N5874    N        0.95205    0.93163    0.87873    1.000
    Si5875   Si       0.94320    0.95577    0.91332    1.000
    N5876    N        0.94086    0.00014    0.91379    1.000
    N5877    N        0.97571    0.94631    0.94180    1.000
    Si5878   Si       0.93759    0.00351    0.95758    1.000
    N5879    N        0.93250    0.90134    0.99920    1.000
