# CIF file generated by openbabel 3.1.1, see https://openbabel.org
data_I
_chemical_name_common '3.01-36.aims'
_cell_length_a 39.908
_cell_length_b 39.908
_cell_length_c 39.908
_cell_angle_alpha 90
_cell_angle_beta 90
_cell_angle_gamma 90
loop_
    _atom_site_label
    _atom_site_type_symbol
    _atom_site_fract_x
    _atom_site_fract_y
    _atom_site_fract_z
    _atom_site_occupancy
    Si0      Si       0.00686    0.09602    0.01014    1.000
    N1       N        0.00330    0.06048    0.08644    1.000
    N2       N        0.04114    0.07417    0.02339    1.000
    Si3      Si       0.04301    0.06226    0.06573    1.000
    N4       N        0.02360    0.13891    0.00882    1.000
    N5       N        0.02369    0.21685    0.08076    1.000
    Si6      Si       0.02227    0.24082    0.01553    1.000
    N7       N        0.99954    0.20417    0.02085    1.000
    Si8      Si       0.99339    0.16830    0.99740    1.000
    Si9      Si       0.99058    0.07743    0.12316    1.000
    Si10     Si       0.99360    0.05925    0.23712    1.000
    N11      N        0.02292    0.10212    0.13935    1.000
    Si12     Si       0.02415    0.12686    0.22115    1.000
    N13      N        0.03034    0.08332    0.23342    1.000
    Si14     Si       0.99686    0.13395    0.15281    1.000
    N15      N        0.01363    0.17343    0.15198    1.000
    Si16     Si       0.99244    0.22137    0.24134    1.000
    N17      N        0.01786    0.24170    0.16982    1.000
    Si18     Si       0.99126    0.20772    0.16633    1.000
    N19      N        0.03564    0.22693    0.23792    1.000
    N20      N        0.03021    0.07454    0.32220    1.000
    N21      N        0.00189    0.02106    0.25578    1.000
    N22      N        0.02066    0.01266    0.32582    1.000
    Si23     Si       0.02643    0.02193    0.36869    1.000
    Si24     Si       0.98810    0.06007    0.33054    1.000
    Si25     Si       0.01276    0.15091    0.35650    1.000
    Si26     Si       0.00824    0.17397    0.28883    1.000
    N27      N        0.01685    0.15326    0.25330    1.000
    Si28     Si       0.99247    0.22805    0.36858    1.000
    N29      N        0.04725    0.19247    0.29761    1.000
    N30      N        0.98992    0.15028    0.32016    1.000
    N31      N        0.99685    0.12327    0.38618    1.000
    N32      N        0.00163    0.07540    0.43470    1.000
    N33      N        0.00113    0.02376    0.48901    1.000
    Si34     Si       0.01936    0.05929    0.47129    1.000
    Si35     Si       0.01864    0.11416    0.42288    1.000
    N36      N        0.01605    0.19114    0.36874    1.000
    N37      N        0.03287    0.24861    0.37742    1.000
    N38      N        0.00690    0.14232    0.45579    1.000
    Si39     Si       0.02745    0.13409    0.49152    1.000
    N40      N        0.00167    0.25787    0.48335    1.000
    N41      N        0.02551    0.04232    0.55284    1.000
    Si42     Si       0.02548    0.08245    0.54017    1.000
    Si43     Si       0.00308    0.05416    0.59280    1.000
    N44      N        0.99475    0.09385    0.57104    1.000
    Si45     Si       0.02686    0.01229    0.52175    1.000
    N46      N        0.01652    0.09144    0.49938    1.000
    N47      N        0.04586    0.06774    0.60940    1.000
    Si48     Si       0.02654    0.18191    0.55269    1.000
    N49      N        0.00687    0.15704    0.52235    1.000
    N50      N        0.00934    0.16544    0.59110    1.000
    N51      N        0.01669    0.22328    0.55524    1.000
    Si52     Si       0.04338    0.24765    0.58110    1.000
    N53      N        0.02795    0.23513    0.61979    1.000
    Si54     Si       0.02947    0.07118    0.65033    1.000
    N55      N        0.03141    0.11212    0.66578    1.000
    N56      N        0.01452    0.04906    0.72704    1.000
    Si57     Si       0.01649    0.12385    0.70393    1.000
    N58      N        0.04756    0.10595    0.73340    1.000
    N59      N        0.98877    0.06760    0.63223    1.000
    Si60     Si       0.00358    0.00772    0.71316    1.000
    Si61     Si       0.98833    0.07482    0.74850    1.000
    Si62     Si       0.99228    0.19866    0.68836    1.000
    N63      N        0.02782    0.22773    0.69222    1.000
    Si64     Si       0.03877    0.23854    0.73360    1.000
    Si65     Si       0.01718    0.19151    0.62394    1.000
    Si66     Si       0.02172    0.25558    0.65869    1.000
    N67      N        0.01424    0.16711    0.71176    1.000
    Si68     Si       0.02205    0.08180    0.82185    1.000
    N69      N        0.02704    0.04544    0.84463    1.000
    N70      N        0.00550    0.09906    0.78255    1.000
    N71      N        0.01633    0.01630    0.79152    1.000
    Si72     Si       0.00443    0.01127    0.83122    1.000
    N73      N        0.99054    0.10487    0.84164    1.000
    Si74     Si       0.04785    0.12153    0.77526    1.000
    Si75     Si       0.00245    0.17913    0.75198    1.000
    N76      N        0.03263    0.16357    0.78261    1.000
    N77      N        0.01210    0.22179    0.84330    1.000
    Si78     Si       0.02246    0.18026    0.82414    1.000
    N79      N        0.00505    0.22361    0.75539    1.000
    N80      N        0.04745    0.15952    0.85197    1.000
    N81      N        0.03258    0.00952    0.96577    1.000
    Si82     Si       0.02203    0.09460    0.93954    1.000
    N83      N        0.03034    0.05895    0.91669    1.000
    Si84     Si       0.01687    0.01731    0.92682    1.000
    N85      N        0.01410    0.12481    0.91209    1.000
    N86      N        0.99495    0.08172    0.97035    1.000
    N87      N        0.01241    0.24179    0.90785    1.000
    N88      N        0.00074    0.18166    0.95280    1.000
    Si89     Si       0.02001    0.22079    0.94497    1.000
    N90      N        0.01143    0.25008    0.97579    1.000
    N91      N        0.02230    0.33432    0.08742    1.000
    N92      N        0.01906    0.27655    0.04330    1.000
    Si93     Si       0.00820    0.31805    0.04990    1.000
    N94      N        0.04324    0.33707    0.02884    1.000
    N95      N        0.99001    0.27159    0.10916    1.000
    Si96     Si       0.02501    0.25918    0.08260    1.000
    N97      N        0.01639    0.41691    0.00934    1.000
    Si98     Si       0.03509    0.48484    0.09007    1.000
    Si99     Si       0.01488    0.41408    0.09778    1.000
    N100     N        0.01933    0.45305    0.11361    1.000
    N101     N        0.03439    0.47337    0.04870    1.000
    N102     N        0.04385    0.40231    0.06895    1.000
    Si103    Si       0.04652    0.43368    0.03717    1.000
    Si104    Si       0.00957    0.34442    0.12655    1.000
    Si105    Si       0.01072    0.32538    0.19157    1.000
    N106     N        0.02839    0.30632    0.22820    1.000
    Si107    Si       0.02313    0.27142    0.13983    1.000
    N108     N        0.02388    0.36531    0.19762    1.000
    N109     N        0.02399    0.31280    0.15299    1.000
    Si110    Si       0.02358    0.37897    0.23818    1.000
    Si111    Si       0.04298    0.39250    0.16712    1.000
    Si112    Si       0.01159    0.46043    0.15819    1.000
    N113     N        0.01929    0.38673    0.13165    1.000
    N114     N        0.03528    0.43246    0.17867    1.000
    N115     N        0.00984    0.50350    0.15695    1.000
    N116     N        0.01556    0.30571    0.34968    1.000
    Si117    Si       0.00603    0.28079    0.31391    1.000
    Si118    Si       0.03183    0.34552    0.33791    1.000
    N119     N        0.99931    0.36905    0.32116    1.000
    N120     N        0.04170    0.26622    0.29499    1.000
    N121     N        0.02285    0.48275    0.34023    1.000
    N122     N        0.02342    0.41896    0.25674    1.000
    Si123    Si       0.04699    0.50781    0.25545    1.000
    N124     N        0.00944    0.32652    0.48613    1.000
    N125     N        0.00630    0.36722    0.43161    1.000
    Si126    Si       0.00442    0.32652    0.44291    1.000
    N127     N        0.03491    0.30360    0.42562    1.000
    Si128    Si       0.03481    0.29033    0.38485    1.000
    N129     N        0.01279    0.41823    0.37150    1.000
    N130     N        0.04011    0.45695    0.48427    1.000
    Si131    Si       0.01127    0.46292    0.37838    1.000
    N132     N        0.02776    0.47731    0.41621    1.000
    Si133    Si       0.02949    0.39021    0.40090    1.000
    Si134    Si       0.02657    0.44390    0.44371    1.000
    N135     N        0.04392    0.38720    0.49502    1.000
    Si136    Si       0.02188    0.31842    0.57342    1.000
    N137     N        0.02227    0.35425    0.55189    1.000
    Si138    Si       0.01216    0.36302    0.51141    1.000
    N139     N        0.00293    0.28910    0.54645    1.000
    Si140    Si       0.01967    0.28930    0.50670    1.000
    N141     N        0.99231    0.32096    0.60512    1.000
    Si142    Si       0.03420    0.38755    0.57754    1.000
    N143     N        0.00190    0.38992    0.60523    1.000
    N144     N        0.02620    0.49003    0.57866    1.000
    N145     N        0.03893    0.42501    0.55462    1.000
    Si146    Si       0.04801    0.45357    0.58597    1.000
    N147     N        0.01537    0.34544    0.71638    1.000
    N148     N        0.02207    0.46609    0.74101    1.000
    N149     N        0.03796    0.38952    0.66677    1.000
    Si150    Si       0.00795    0.41186    0.64408    1.000
    N151     N        0.98944    0.41112    0.71140    1.000
    Si152    Si       0.01970    0.42271    0.74078    1.000
    N153     N        0.04213    0.43518    0.62359    1.000
    N154     N        0.00785    0.36621    0.83612    1.000
    Si155    Si       0.02824    0.33747    0.86099    1.000
    N156     N        0.03410    0.33135    0.78162    1.000
    Si157    Si       0.02925    0.37096    0.79811    1.000
    N158     N        0.01831    0.29310    0.86251    1.000
    Si159    Si       0.00316    0.32300    0.75336    1.000
    Si160    Si       0.01784    0.26311    0.82992    1.000
    N161     N        0.05090    0.26593    0.80121    1.000
    N162     N        0.00643    0.40562    0.78078    1.000
    Si163    Si       0.02096    0.46845    0.85615    1.000
    N164     N        0.02886    0.49772    0.82388    1.000
    N165     N        0.99546    0.43782    0.84159    1.000
    N166     N        0.00048    0.36371    0.95669    1.000
    Si167    Si       0.03111    0.33911    0.93897    1.000
    Si168    Si       0.03008    0.27929    0.90231    1.000
    N169     N        0.00714    0.30347    0.93247    1.000
    N170     N        0.03537    0.35569    0.89915    1.000
    N171     N        0.01400    0.47476    0.95055    1.000
    Si172    Si       0.99015    0.50585    0.96915    1.000
    Si173    Si       0.04594    0.39917    0.90239    1.000
    N174     N        0.00800    0.41732    0.89601    1.000
    Si175    Si       0.01527    0.40475    0.96793    1.000
    N176     N        0.99704    0.48562    0.89035    1.000
    N177     N        0.05069    0.40594    0.94535    1.000
    N178     N        0.01539    0.59129    0.07754    1.000
    Si179    Si       0.03652    0.55417    0.08019    1.000
    N180     N        0.01059    0.52118    0.08803    1.000
    N181     N        0.99865    0.52144    0.00827    1.000
    Si182    Si       0.03808    0.50982    0.02439    1.000
    Si183    Si       0.02443    0.63108    0.09032    1.000
    N184     N        0.02843    0.65095    0.05148    1.000
    Si185    Si       0.02956    0.69545    0.04587    1.000
    N186     N        0.02286    0.52336    0.22043    1.000
    Si187    Si       0.00682    0.59945    0.19993    1.000
    Si188    Si       0.03300    0.53376    0.17851    1.000
    N189     N        0.03124    0.57512    0.17296    1.000
    N190     N        0.99369    0.58657    0.23999    1.000
    N191     N        0.03336    0.63085    0.20850    1.000
    Si192    Si       0.04106    0.72450    0.18124    1.000
    Si193    Si       0.01037    0.66757    0.21302    1.000
    N194     N        0.00413    0.74594    0.17235    1.000
    N195     N        0.03218    0.70370    0.21757    1.000
    N196     N        0.02206    0.55181    0.34231    1.000
    N197     N        0.00461    0.62233    0.30402    1.000
    N198     N        0.01855    0.52107    0.28294    1.000
    Si199    Si       0.00348    0.51800    0.32323    1.000
    Si200    Si       0.99982    0.54433    0.25098    1.000
    Si201    Si       0.98865    0.63218    0.34614    1.000
    N202     N        0.01103    0.66786    0.36028    1.000
    Si203    Si       0.02270    0.73673    0.30387    1.000
    N204     N        0.02778    0.75583    0.26535    1.000
    N205     N        0.99065    0.51602    0.45562    1.000
    N206     N        0.99538    0.60344    0.37897    1.000
    Si207    Si       0.00815    0.56132    0.38072    1.000
    Si208    Si       0.03016    0.51524    0.43641    1.000
    N209     N        0.03828    0.54673    0.40957    1.000
    N210     N        0.02557    0.72493    0.39622    1.000
    N211     N        0.00788    0.65369    0.42490    1.000
    Si212    Si       0.00104    0.68868    0.39813    1.000
    N213     N        0.00823    0.52604    0.52493    1.000
    Si214    Si       0.00616    0.62811    0.54476    1.000
    Si215    Si       0.99651    0.56502    0.55365    1.000
    N216     N        0.03813    0.55337    0.57035    1.000
    Si217    Si       0.04299    0.51696    0.54895    1.000
    Si218    Si       0.04351    0.53881    0.61303    1.000
    N219     N        0.99212    0.60401    0.57993    1.000
    N220     N        0.99470    0.59261    0.52066    1.000
    N221     N        0.04985    0.62288    0.55026    1.000
    Si222    Si       0.02285    0.68711    0.60109    1.000
    N223     N        0.00085    0.67032    0.56778    1.000
    Si224    Si       0.00964    0.68859    0.52625    1.000
    Si225    Si       0.04138    0.75561    0.61148    1.000
    Si226    Si       0.02255    0.75279    0.49917    1.000
    N227     N        0.99296    0.72163    0.50123    1.000
    N228     N        0.99202    0.65362    0.50960    1.000
    N229     N        0.00223    0.52926    0.62340    1.000
    Si230    Si       0.00930    0.55709    0.72552    1.000
    N231     N        0.02645    0.54113    0.68796    1.000
    Si232    Si       0.99139    0.55021    0.66006    1.000
    N233     N        0.04539    0.57486    0.74181    1.000
    N234     N        0.99664    0.65163    0.67937    1.000
    Si235    Si       0.03935    0.65611    0.67294    1.000
    N236     N        0.04489    0.75110    0.65266    1.000
    N237     N        0.03788    0.74131    0.72880    1.000
    N238     N        0.99209    0.70530    0.63021    1.000
    Si239    Si       0.99487    0.73707    0.72303    1.000
    N240     N        0.01618    0.66914    0.74620    1.000
    Si241    Si       0.01242    0.53391    0.83258    1.000
    N242     N        0.02350    0.56663    0.80341    1.000
    Si243    Si       0.03282    0.61059    0.81721    1.000
    N244     N        0.04105    0.61448    0.86100    1.000
    N245     N        0.98845    0.52887    0.75352    1.000
    N246     N        0.99768    0.63384    0.81129    1.000
    Si247    Si       0.01216    0.70660    0.84575    1.000
    N248     N        0.03161    0.69035    0.81067    1.000
    Si249    Si       0.00060    0.66920    0.78663    1.000
    N250     N        0.99934    0.74697    0.83617    1.000
    N251     N        0.01773    0.54686    0.87434    1.000
    N252     N        0.01115    0.59663    0.92534    1.000
    Si253    Si       0.01209    0.59014    0.88212    1.000
    Si254    Si       0.01502    0.52143    0.90992    1.000
    N255     N        0.04185    0.70186    0.87862    1.000
    N256     N        0.99914    0.67192    0.92716    1.000
    Si257    Si       0.99681    0.64804    0.96451    1.000
    N258     N        0.03636    0.71979    0.94294    1.000
    Si259    Si       0.04147    0.68494    0.91872    1.000
    N260     N        0.03795    0.63697    0.97905    1.000
    Si261    Si       0.99408    0.71335    0.95270    1.000
    Si262    Si       0.01952    0.85933    0.08083    1.000
    N263     N        0.02204    0.79043    0.01963    1.000
    Si264    Si       0.01936    0.79142    0.11156    1.000
    N265     N        0.99817    0.84625    0.04277    1.000
    N266     N        0.99675    0.77096    0.08200    1.000
    Si267    Si       0.00152    0.86002    0.00190    1.000
    N268     N        0.03943    0.82211    0.09020    1.000
    N269     N        0.99192    0.86944    0.11295    1.000
    N270     N        0.00113    0.98174    0.02865    1.000
    Si271    Si       0.00617    0.96368    0.06799    1.000
    N272     N        0.99742    0.99059    0.10124    1.000
    Si273    Si       0.04259    0.99640    0.10641    1.000
    Si274    Si       0.03142    0.98169    0.99908    1.000
    N275     N        0.00164    0.80739    0.14775    1.000
    N276     N        0.01706    0.80750    0.21478    1.000
    N277     N        0.02748    0.86663    0.17191    1.000
    Si278    Si       0.99496    0.78631    0.18440    1.000
    Si279    Si       0.99402    0.84982    0.15298    1.000
    Si280    Si       0.01410    0.98276    0.24051    1.000
    Si281    Si       0.99773    0.97165    0.14227    1.000
    N282     N        0.04027    0.98408    0.14856    1.000
    N283     N        0.00143    0.92744    0.13972    1.000
    Si284    Si       0.03849    0.90885    0.15826    1.000
    N285     N        0.02725    0.82428    0.28225    1.000
    Si286    Si       0.02833    0.86456    0.26572    1.000
    Si287    Si       0.00958    0.79631    0.25474    1.000
    N288     N        0.03289    0.76567    0.33414    1.000
    N289     N        0.98994    0.87708    0.24787    1.000
    N290     N        0.00668    0.96369    0.28180    1.000
    Si291    Si       0.99016    0.00230    0.29673    1.000
    Si292    Si       0.99297    0.92163    0.25854    1.000
    N293     N        0.03945    0.91113    0.26706    1.000
    N294     N        0.99041    0.92292    0.36558    1.000
    Si295    Si       0.02686    0.94594    0.36904    1.000
    N296     N        0.00645    0.79067    0.48544    1.000
    N297     N        0.02328    0.86033    0.47406    1.000
    N298     N        0.01239    0.80046    0.38855    1.000
    N299     N        0.03100    0.86664    0.39123    1.000
    Si300    Si       0.03718    0.81958    0.48776    1.000
    Si301    Si       0.04627    0.82771    0.38269    1.000
    Si302    Si       0.01315    0.76017    0.37309    1.000
    Si303    Si       0.02861    0.94906    0.44850    1.000
    N304     N        0.04188    0.92985    0.40994    1.000
    Si305    Si       0.99077    0.88578    0.38855    1.000
    N306     N        0.03689    0.92689    0.48546    1.000
    N307     N        0.98913    0.96696    0.44885    1.000
    N308     N        0.03958    0.98487    0.38656    1.000
    N309     N        0.01322    0.83123    0.57730    1.000
    Si310    Si       0.02393    0.87300    0.57952    1.000
    N311     N        0.99913    0.76509    0.60070    1.000
    Si312    Si       0.04047    0.80101    0.55765    1.000
    N313     N        0.03205    0.76177    0.53933    1.000
    N314     N        0.01003    0.97369    0.53718    1.000
    N315     N        0.00828    0.90585    0.55359    1.000
    Si316    Si       0.03249    0.93541    0.52878    1.000
    N317     N        0.02793    0.98031    0.60719    1.000
    Si318    Si       0.99641    0.98444    0.57722    1.000
    Si319    Si       0.02152    0.78319    0.67189    1.000
    N320     N        0.02239    0.86944    0.68559    1.000
    N321     N        0.00249    0.81435    0.64575    1.000
    Si322    Si       0.99483    0.85813    0.65239    1.000
    N323     N        0.01900    0.87966    0.62365    1.000
    Si324    Si       0.04411    0.84100    0.71326    1.000
    N325     N        0.05108    0.80054    0.69733    1.000
    N326     N        0.01172    0.00514    0.67227    1.000
    N327     N        0.02363    0.97638    0.73755    1.000
    Si328    Si       0.01829    0.97085    0.64957    1.000
    N329     N        0.03891    0.93624    0.66372    1.000
    Si330    Si       0.04530    0.89320    0.65592    1.000
    Si331    Si       0.98843    0.88546    0.70993    1.000
    Si332    Si       0.01462    0.78793    0.84727    1.000
    N333     N        0.03933    0.79939    0.81476    1.000
    N334     N        0.02521    0.82671    0.75117    1.000
    N335     N        0.99096    0.86487    0.80227    1.000
    Si336    Si       0.02769    0.88431    0.78673    1.000
    N337     N        0.03951    0.91269    0.82027    1.000
    N338     N        0.02143    0.97054    0.83947    1.000
    Si339    Si       0.99751    0.93217    0.83192    1.000
    N340     N        0.01814    0.89926    0.74839    1.000
    Si341    Si       0.00242    0.94035    0.74717    1.000
    N342     N        0.04053    0.79066    0.88233    1.000
    Si343    Si       0.01856    0.81100    0.91387    1.000
    N344     N        0.00947    0.85176    0.90685    1.000
    N345     N        0.03638    0.86924    0.98136    1.000
    Si346    Si       0.00046    0.78854    0.98290    1.000
    N347     N        0.03222    0.79285    0.95129    1.000
    N348     N        0.99993    0.97207    0.91775    1.000
    N349     N        0.00531    0.92351    0.87614    1.000
    N350     N        0.04603    0.00497    0.89337    1.000
    N351     N        0.02850    0.94142    0.98468    1.000
    Si352    Si       0.01160    0.89734    0.91006    1.000
    Si353    Si       0.02851    0.96279    0.88411    1.000
    N354     N        0.07243    0.09166    0.08501    1.000
    N355     N        0.09663    0.10964    0.02073    1.000
    N356     N        0.05648    0.02295    0.07316    1.000
    Si357    Si       0.10777    0.10111    0.06239    1.000
    Si358    Si       0.07473    0.08059    0.99496    1.000
    Si359    Si       0.06586    0.14028    0.01617    1.000
    Si360    Si       0.06034    0.20311    0.06143    1.000
    N361     N        0.06280    0.22871    0.02685    1.000
    Si362    Si       0.09738    0.16253    0.09223    1.000
    N363     N        0.09137    0.20460    0.09154    1.000
    N364     N        0.06797    0.16097    0.05448    1.000
    Si365    Si       0.09611    0.24745    0.10276    1.000
    Si366    Si       0.09703    0.25442    0.02205    1.000
    Si367    Si       0.06409    0.10357    0.12651    1.000
    Si368    Si       0.09486    0.10898    0.19292    1.000
    N369     N        0.09108    0.08534    0.15514    1.000
    N370     N        0.10154    0.08480    0.22763    1.000
    N371     N        0.05816    0.13384    0.19342    1.000
    N372     N        0.08706    0.25787    0.19817    1.000
    Si373    Si       0.10659    0.22479    0.17611    1.000
    Si374    Si       0.05562    0.16495    0.15923    1.000
    Si375    Si       0.05053    0.23204    0.19859    1.000
    N376     N        0.07607    0.14685    0.12711    1.000
    N377     N        0.07109    0.20128    0.17452    1.000
    N378     N        0.07221    0.04104    0.27264    1.000
    N379     N        0.07734    0.11191    0.28382    1.000
    Si380    Si       0.06319    0.10349    0.32520    1.000
    N381     N        0.08472    0.01828    0.33728    1.000
    Si382    Si       0.06754    0.08032    0.25496    1.000
    Si383    Si       0.05441    0.03798    0.31187    1.000
    N384     N        0.09828    0.08650    0.34511    1.000
    Si385    Si       0.09954    0.04888    0.36819    1.000
    Si386    Si       0.07497    0.17304    0.32814    1.000
    N387     N        0.08619    0.20416    0.35589    1.000
    Si388    Si       0.05556    0.22937    0.27602    1.000
    N389     N        0.09961    0.23265    0.27342    1.000
    N390     N        0.05285    0.13965    0.34416    1.000
    N391     N        0.05549    0.05054    0.38473    1.000
    N392     N        0.05862    0.04789    0.46011    1.000
    Si393    Si       0.06948    0.06697    0.42294    1.000
    N394     N        0.06070    0.10928    0.42642    1.000
    Si395    Si       0.09427    0.12357    0.45487    1.000
    Si396    Si       0.07730    0.01215    0.47344    1.000
    Si397    Si       0.09810    0.20151    0.45136    1.000
    N398     N        0.06948    0.13508    0.49050    1.000
    N399     N        0.06701    0.20421    0.42334    1.000
    Si400    Si       0.05405    0.21035    0.38317    1.000
    N401     N        0.08896    0.22283    0.48910    1.000
    Si402    Si       0.07438    0.09740    0.59177    1.000
    N403     N        0.05946    0.10829    0.55030    1.000
    N404     N        0.08834    0.12761    0.61854    1.000
    Si405    Si       0.08203    0.13906    0.53137    1.000
    N406     N        0.06708    0.17841    0.54386    1.000
    N407     N        0.08516    0.23985    0.56486    1.000
    Si408    Si       0.09146    0.21291    0.53081    1.000
    Si409    Si       0.09122    0.02512    0.66613    1.000
    N410     N        0.06003    0.05329    0.67786    1.000
    Si411    Si       0.05764    0.06350    0.72165    1.000
    Si412    Si       0.09547    0.11993    0.72800    1.000
    N413     N        0.10029    0.07742    0.72744    1.000
    N414     N        0.07167    0.02483    0.74590    1.000
    Si415    Si       0.06020    0.18904    0.69373    1.000
    N416     N        0.04685    0.17762    0.65162    1.000
    N417     N        0.10132    0.20613    0.68393    1.000
    N418     N        0.06659    0.20298    0.73710    1.000
    N419     N        0.09938    0.25160    0.62917    1.000
    N420     N        0.08415    0.14592    0.69333    1.000
    Si421    Si       0.06543    0.13781    0.65434    1.000
    Si422    Si       0.09266    0.10342    0.83702    1.000
    N423     N        0.06040    0.09943    0.81058    1.000
    N424     N        0.06894    0.09490    0.87468    1.000
    N425     N        0.09061    0.14400    0.76445    1.000
    N426     N        0.07986    0.20205    0.80985    1.000
    Si427    Si       0.08703    0.17606    0.84597    1.000
    Si428    Si       0.08451    0.24532    0.81343    1.000
    Si429    Si       0.07027    0.18232    0.77394    1.000
    N430     N        0.09811    0.03679    0.88008    1.000
    N431     N        0.09312    0.04711    0.97664    1.000
    N432     N        0.05630    0.10395    0.96343    1.000
    Si433    Si       0.05422    0.05078    0.88031    1.000
    Si434    Si       0.08698    0.13294    0.95203    1.000
    Si435    Si       0.05112    0.13401    0.88824    1.000
    Si436    Si       0.07876    0.00719    0.97178    1.000
    N437     N        0.08728    0.16178    0.98542    1.000
    N438     N        0.07823    0.15171    0.91506    1.000
    N439     N        0.06298    0.21825    0.94454    1.000
    N440     N        0.09690    0.20102    0.87993    1.000
    Si441    Si       0.08836    0.19352    0.92168    1.000
    N442     N        0.09294    0.35881    0.08267    1.000
    Si443    Si       0.07571    0.32542    0.00277    1.000
    Si444    Si       0.05301    0.36019    0.06793    1.000
    N445     N        0.05594    0.26538    0.11180    1.000
    Si446    Si       0.10658    0.38046    0.11847    1.000
    N447     N        0.10846    0.26629    0.06526    1.000
    N448     N        0.08960    0.43630    0.03054    1.000
    N449     N        0.07637    0.49123    0.10217    1.000
    N450     N        0.10888    0.42112    0.10179    1.000
    N451     N        0.09291    0.32694    0.19753    1.000
    Si452    Si       0.06495    0.32782    0.23212    1.000
    Si453    Si       0.10802    0.28957    0.21610    1.000
    N454     N        0.08480    0.38341    0.15839    1.000
    N455     N        0.10003    0.42653    0.24708    1.000
    Si456    Si       0.08409    0.36452    0.28854    1.000
    N457     N        0.06611    0.33378    0.31214    1.000
    Si458    Si       0.07521    0.29465    0.29490    1.000
    N459     N        0.09192    0.30307    0.25560    1.000
    N460     N        0.06058    0.36322    0.25339    1.000
    N461     N        0.10498    0.27891    0.32209    1.000
    Si462    Si       0.06101    0.48049    0.31955    1.000
    Si463    Si       0.06349    0.42632    0.27136    1.000
    N464     N        0.08338    0.45404    0.34631    1.000
    N465     N        0.07244    0.40253    0.30661    1.000
    N466     N        0.06507    0.47132    0.27555    1.000
    Si467    Si       0.09872    0.41492    0.34131    1.000
    Si468    Si       0.10417    0.47053    0.24934    1.000
    N469     N        0.04926    0.36178    0.37582    1.000
    Si470    Si       0.07945    0.30580    0.42598    1.000
    N471     N        0.09582    0.34511    0.42754    1.000
    Si472    Si       0.09317    0.34913    0.38308    1.000
    Si473    Si       0.09590    0.26504    0.48872    1.000
    N474     N        0.07697    0.30375    0.38175    1.000
    N475     N        0.10490    0.27872    0.44709    1.000
    N476     N        0.10522    0.39199    0.37929    1.000
    Si477    Si       0.07100    0.48775    0.48615    1.000
    Si478    Si       0.09856    0.41429    0.41854    1.000
    N479     N        0.05542    0.41612    0.42450    1.000
    Si480    Si       0.08723    0.28433    0.55021    1.000
    N481     N        0.06317    0.28282    0.51278    1.000
    N482     N        0.05381    0.29060    0.58520    1.000
    Si483    Si       0.10404    0.34926    0.59214    1.000
    N484     N        0.07183    0.37914    0.59795    1.000
    N485     N        0.10588    0.32194    0.55706    1.000
    N486     N        0.09099    0.46348    0.58643    1.000
    Si487    Si       0.05367    0.42617    0.51286    1.000
    N488     N        0.09692    0.43041    0.51907    1.000
    N489     N        0.07441    0.50125    0.52721    1.000
    Si490    Si       0.10522    0.49862    0.61150    1.000
    Si491    Si       0.07329    0.28742    0.62400    1.000
    Si492    Si       0.06961    0.29626    0.69932    1.000
    N493     N        0.09588    0.32440    0.62821    1.000
    N494     N        0.08035    0.33946    0.69471    1.000
    N495     N        0.05465    0.27836    0.73572    1.000
    Si496    Si       0.05147    0.37016    0.70298    1.000
    N497     N        0.05042    0.28657    0.66147    1.000
    Si498    Si       0.06932    0.40245    0.63517    1.000
    N499     N        0.05843    0.40143    0.73250    1.000
    N500     N        0.10441    0.39185    0.65735    1.000
    N501     N        0.07833    0.49518    0.70730    1.000
    N502     N        0.07079    0.33245    0.84901    1.000
    Si503    Si       0.08915    0.34876    0.81520    1.000
    Si504    Si       0.06248    0.29831    0.77313    1.000
    N505     N        0.10025    0.31655    0.78713    1.000
    N506     N        0.09344    0.26286    0.85192    1.000
    N507     N        0.06991    0.38490    0.80065    1.000
    Si508    Si       0.06945    0.47958    0.81095    1.000
    N509     N        0.07491    0.45169    0.77870    1.000
    Si510    Si       0.08360    0.41094    0.76889    1.000
    N511     N        0.06472    0.45574    0.84911    1.000
    Si512    Si       0.10178    0.44631    0.86969    1.000
    N513     N        0.10542    0.50225    0.82339    1.000
    Si514    Si       0.06248    0.47986    0.74440    1.000
    Si515    Si       0.09007    0.30174    0.87333    1.000
    N516     N        0.06646    0.33468    0.96115    1.000
    Si517    Si       0.09158    0.29779    0.95261    1.000
    N518     N        0.07449    0.28905    0.91183    1.000
    N519     N        0.08097    0.28391    0.99210    1.000
    N520     N        0.08740    0.41350    0.89474    1.000
    Si521    Si       0.09225    0.41657    0.94040    1.000
    N522     N        0.09153    0.45497    0.95636    1.000
    Si523    Si       0.05817    0.48330    0.95399    1.000
    N524     N        0.06656    0.49722    0.99339    1.000
    Si525    Si       0.07539    0.57475    0.01631    1.000
    N526     N        0.08342    0.61643    0.03081    1.000
    N527     N        0.06251    0.56045    0.11342    1.000
    N528     N        0.05469    0.54713    0.04193    1.000
    Si529    Si       0.05625    0.64633    0.01827    1.000
    N530     N        0.07041    0.68925    0.02023    1.000
    Si531    Si       0.09415    0.70289    0.06079    1.000
    Si532    Si       0.06865    0.72744    0.11362    1.000
    N533     N        0.05356    0.71147    0.07741    1.000
    Si534    Si       0.09866    0.71742    0.99845    1.000
    Si535    Si       0.08551    0.52715    0.12782    1.000
    N536     N        0.07422    0.52521    0.17016    1.000
    Si537    Si       0.05975    0.59127    0.14588    1.000
    N538     N        0.09512    0.59184    0.23269    1.000
    N539     N        0.10171    0.59954    0.15795    1.000
    Si540    Si       0.10067    0.52280    0.20407    1.000
    Si541    Si       0.07211    0.62950    0.22818    1.000
    N542     N        0.04823    0.62892    0.12499    1.000
    N543     N        0.06945    0.75386    0.20101    1.000
    N544     N        0.09306    0.65742    0.20214    1.000
    Si545    Si       0.05487    0.73558    0.23886    1.000
    N546     N        0.06745    0.70694    0.15135    1.000
    Si547    Si       0.10113    0.68282    0.16570    1.000
    N548     N        0.06485    0.57858    0.29240    1.000
    Si549    Si       0.06328    0.55456    0.32913    1.000
    N550     N        0.08504    0.51699    0.32137    1.000
    Si551    Si       0.09552    0.56233    0.26623    1.000
    N552     N        0.08451    0.57223    0.36440    1.000
    Si553    Si       0.08534    0.61484    0.36966    1.000
    Si554    Si       0.04816    0.61801    0.29973    1.000
    N555     N        0.08546    0.52623    0.24462    1.000
    N556     N        0.06420    0.63506    0.33833    1.000
    Si557    Si       0.07830    0.68459    0.28549    1.000
    N558     N        0.06645    0.64737    0.26747    1.000
    N559     N        0.08866    0.71333    0.25305    1.000
    Si560    Si       0.05030    0.67575    0.34686    1.000
    N561     N        0.04711    0.70108    0.31009    1.000
    N562     N        0.10758    0.56476    0.43488    1.000
    Si563    Si       0.08317    0.54903    0.40224    1.000
    N564     N        0.06481    0.52191    0.46291    1.000
    Si565    Si       0.09674    0.55337    0.47358    1.000
    N566     N        0.09631    0.50767    0.39618    1.000
    N567     N        0.07291    0.62899    0.40891    1.000
    N568     N        0.08526    0.69256    0.37216    1.000
    N569     N        0.05704    0.74092    0.47436    1.000
    Si570    Si       0.04901    0.64738    0.43915    1.000
    Si571    Si       0.10304    0.66228    0.40283    1.000
    N572     N        0.07081    0.68587    0.43559    1.000
    Si573    Si       0.06693    0.71727    0.40532    1.000
    N574     N        0.08646    0.75545    0.41108    1.000
    Si575    Si       0.06882    0.69683    0.48037    1.000
    N576     N        0.06126    0.64857    0.47970    1.000
    Si577    Si       0.07554    0.62272    0.51463    1.000
    Si578    Si       0.05907    0.59164    0.57869    1.000
    N579     N        0.10307    0.59304    0.57597    1.000
    N580     N        0.08018    0.58190    0.50139    1.000
    N581     N        0.10184    0.74799    0.54260    1.000
    Si582    Si       0.06140    0.73046    0.54899    1.000
    N583     N        0.04931    0.69751    0.52341    1.000
    N584     N        0.04803    0.71923    0.58839    1.000
    N585     N        0.10658    0.67149    0.58514    1.000
    N586     N        0.05439    0.58087    0.62331    1.000
    N587     N        0.09236    0.56595    0.68241    1.000
    Si588    Si       0.07866    0.59906    0.65449    1.000
    Si589    Si       0.06795    0.52776    0.67875    1.000
    Si590    Si       0.07668    0.59303    0.71728    1.000
    N591     N        0.05696    0.61807    0.68670    1.000
    N592     N        0.07316    0.51476    0.63735    1.000
    Si593    Si       0.08759    0.66998    0.62522    1.000
    Si594    Si       0.07223    0.72474    0.67571    1.000
    N595     N        0.09809    0.70511    0.64703    1.000
    Si596    Si       0.04806    0.69683    0.73481    1.000
    N597     N        0.09812    0.75005    0.70090    1.000
    N598     N        0.05479    0.68958    0.69190    1.000
    N599     N        0.04510    0.66302    0.62970    1.000
    N600     N        0.09424    0.56634    0.79726    1.000
    N601     N        0.07073    0.51492    0.77304    1.000
    Si602    Si       0.10221    0.60658    0.78624    1.000
    Si603    Si       0.05658    0.55541    0.77929    1.000
    N604     N        0.06735    0.63148    0.79903    1.000
    Si605    Si       0.06859    0.67441    0.79906    1.000
    N606     N        0.08322    0.68502    0.75928    1.000
    N607     N        0.09166    0.74985    0.85197    1.000
    Si608    Si       0.08203    0.70890    0.86658    1.000
    N609     N        0.09844    0.69189    0.82641    1.000
    N610     N        0.07757    0.58570    0.91360    1.000
    N611     N        0.06422    0.57398    0.97403    1.000
    Si612    Si       0.07909    0.55222    0.93934    1.000
    Si613    Si       0.07627    0.61953    0.88549    1.000
    N614     N        0.05556    0.51905    0.92771    1.000
    Si615    Si       0.04962    0.60855    0.94531    1.000
    N616     N        0.06227    0.64594    0.91996    1.000
    Si617    Si       0.05638    0.75651    0.95330    1.000
    N618     N        0.07500    0.75242    0.99154    1.000
    Si619    Si       0.07850    0.80132    0.09370    1.000
    N620     N        0.08771    0.78102    0.05697    1.000
    Si621    Si       0.06455    0.78626    0.01922    1.000
    N622     N        0.08487    0.82118    0.00352    1.000
    Si623    Si       0.07131    0.92240    0.08812    1.000
    Si624    Si       0.07662    0.98965    0.05388    1.000
    N625     N        0.07315    0.98671    0.01170    1.000
    N626     N        0.05088    0.96135    0.07805    1.000
    N627     N        0.08858    0.89725    0.99640    1.000
    N628     N        0.04828    0.88994    0.07543    1.000
    N629     N        0.06066    0.77159    0.12225    1.000
    N630     N        0.07768    0.82049    0.17385    1.000
    N631     N        0.05948    0.86160    0.23385    1.000
    Si632    Si       0.07239    0.77891    0.16323    1.000
    Si633    Si       0.04508    0.83814    0.19958    1.000
    N634     N        0.07258    0.91848    0.13275    1.000
    N635     N        0.10640    0.97042    0.17367    1.000
    Si636    Si       0.06235    0.97033    0.18311    1.000
    N637     N        0.05188    0.92841    0.19428    1.000
    N638     N        0.10628    0.90276    0.23691    1.000
    N639     N        0.05148    0.99021    0.22004    1.000
    Si640    Si       0.06278    0.90730    0.23116    1.000
    N641     N        0.09226    0.79163    0.29283    1.000
    Si642    Si       0.09457    0.84738    0.34146    1.000
    N643     N        0.05693    0.82745    0.34127    1.000
    Si644    Si       0.09884    0.86309    0.25751    1.000
    Si645    Si       0.05075    0.79946    0.30795    1.000
    N646     N        0.09769    0.86396    0.30083    1.000
    N647     N        0.09117    0.88579    0.36474    1.000
    N648     N        0.05582    0.93911    0.33684    1.000
    N649     N        0.07690    0.97442    0.28007    1.000
    Si650    Si       0.09793    0.92530    0.35103    1.000
    Si651    Si       0.08129    0.00463    0.24904    1.000
    Si652    Si       0.04628    0.94507    0.29387    1.000
    Si653    Si       0.10352    0.98777    0.31232    1.000
    Si654    Si       0.08200    0.77050    0.45412    1.000
    Si655    Si       0.09372    0.84012    0.43809    1.000
    N656     N        0.06806    0.81140    0.45995    1.000
    N657     N        0.08527    0.81919    0.39896    1.000
    N658     N        0.07594    0.88000    0.43721    1.000
    Si659    Si       0.10786    0.78353    0.38402    1.000
    Si660    Si       0.06417    0.89261    0.39915    1.000
    N661     N        0.06445    0.97823    0.44807    1.000
    Si662    Si       0.05559    0.88856    0.47540    1.000
    Si663    Si       0.07272    0.96613    0.40881    1.000
    N664     N        0.10652    0.94606    0.39150    1.000
    N665     N        0.06709    0.78436    0.59063    1.000
    Si666    Si       0.08334    0.85420    0.53962    1.000
    N667     N        0.05776    0.82335    0.52613    1.000
    N668     N        0.06840    0.87613    0.57340    1.000
    N669     N        0.08435    0.88150    0.50483    1.000
    Si670    Si       0.09027    0.98065    0.54311    1.000
    N671     N        0.06884    0.94398    0.55271    1.000
    Si672    Si       0.08875    0.91387    0.57907    1.000
    Si673    Si       0.07138    0.97828    0.60789    1.000
    N674     N        0.08526    0.93734    0.61467    1.000
    N675     N        0.09602    0.00207    0.57927    1.000
    N676     N        0.06825    0.00450    0.51475    1.000
    Si677    Si       0.06761    0.77155    0.72387    1.000
    N678     N        0.07900    0.86370    0.72250    1.000
    Si679    Si       0.08210    0.94271    0.65866    1.000
    Si680    Si       0.10101    0.90325    0.70989    1.000
    N681     N        0.08738    0.89602    0.66586    1.000
    N682     N        0.07702    0.98652    0.65119    1.000
    N683     N        0.10370    0.94664    0.69651    1.000
    N684     N        0.06540    0.86179    0.78985    1.000
    Si685    Si       0.09630    0.86686    0.76094    1.000
    N686     N        0.08557    0.79302    0.75703    1.000
    Si687    Si       0.05564    0.81634    0.77885    1.000
    Si688    Si       0.07730    0.88543    0.82898    1.000
    N689     N        0.07222    0.96599    0.78847    1.000
    Si690    Si       0.06159    0.95022    0.82746    1.000
    N691     N        0.10197    0.91090    0.75468    1.000
    N692     N        0.10260    0.92259    0.82440    1.000
    Si693    Si       0.04758    0.99704    0.76825    1.000
    N694     N        0.07239    0.95461    0.87042    1.000
    N695     N        0.08019    0.87879    0.87323    1.000
    Si696    Si       0.08267    0.77844    0.88414    1.000
    Si697    Si       0.07985    0.85625    0.97839    1.000
    N698     N        0.09839    0.86002    0.93950    1.000
    N699     N        0.08638    0.76122    0.92295    1.000
    Si700    Si       0.08635    0.89364    0.91258    1.000
    N701     N        0.09736    0.98840    0.93779    1.000
    Si702    Si       0.08844    0.99452    0.89250    1.000
    N703     N        0.05002    0.90977    0.92834    1.000
    Si704    Si       0.05371    0.90940    0.97219    1.000
    N705     N        0.13605    0.06950    0.06371    1.000
    Si706    Si       0.13465    0.03328    0.08714    1.000
    Si707    Si       0.13482    0.12618    0.99904    1.000
    Si708    Si       0.16435    0.12128    0.09736    1.000
    N709     N        0.12879    0.13649    0.07851    1.000
    Si710    Si       0.16367    0.24238    0.00034    1.000
    N711     N        0.12480    0.22647    0.00577    1.000
    N712     N        0.16923    0.25056    0.08601    1.000
    N713     N        0.12413    0.02795    0.12983    1.000
    N714     N        0.11412    0.01610    0.22479    1.000
    Si715    Si       0.13312    0.05463    0.22520    1.000
    N716     N        0.15094    0.09589    0.12892    1.000
    N717     N        0.15467    0.06539    0.18753    1.000
    Si718    Si       0.13069    0.06523    0.15308    1.000
    Si719    Si       0.16297    0.12653    0.15735    1.000
    Si720    Si       0.14654    0.15778    0.21842    1.000
    Si721    Si       0.16229    0.24954    0.12793    1.000
    N722     N        0.13323    0.20392    0.20542    1.000
    N723     N        0.13101    0.13508    0.18363    1.000
    N724     N        0.12008    0.24119    0.13977    1.000
    N725     N        0.14328    0.10101    0.29648    1.000
    N726     N        0.14420    0.04519    0.35659    1.000
    Si727    Si       0.14196    0.08537    0.33864    1.000
    N728     N        0.16209    0.11712    0.36089    1.000
    N729     N        0.16563    0.05745    0.25335    1.000
    Si730    Si       0.11606    0.13209    0.28274    1.000
    N731     N        0.14868    0.22674    0.32752    1.000
    Si732    Si       0.12635    0.21737    0.36358    1.000
    Si733    Si       0.14992    0.15490    0.34423    1.000
    N734     N        0.11395    0.15880    0.31863    1.000
    N735     N        0.12065    0.16365    0.25252    1.000
    N736     N        0.16166    0.22576    0.26523    1.000
    Si737    Si       0.13183    0.25423    0.29917    1.000
    Si738    Si       0.12520    0.20635    0.25006    1.000
    N739     N        0.12023    0.02278    0.47402    1.000
    Si740    Si       0.13375    0.05444    0.44730    1.000
    N741     N        0.12668    0.09493    0.46519    1.000
    N742     N        0.11056    0.05489    0.41182    1.000
    Si743    Si       0.15627    0.10947    0.49291    1.000
    N744     N        0.11170    0.16032    0.43998    1.000
    Si745    Si       0.14776    0.17619    0.42207    1.000
    N746     N        0.13721    0.21647    0.43813    1.000
    N747     N        0.14729    0.18268    0.37738    1.000
    N748     N        0.12691    0.25572    0.38569    1.000
    Si749    Si       0.14003    0.10304    0.56311    1.000
    Si750    Si       0.12439    0.03499    0.59279    1.000
    N751     N        0.11069    0.07555    0.58004    1.000
    N752     N        0.15944    0.13166    0.59008    1.000
    N753     N        0.15810    0.08227    0.52832    1.000
    N754     N        0.12461    0.13430    0.53533    1.000
    Si755    Si       0.15401    0.16646    0.53154    1.000
    Si756    Si       0.15240    0.24408    0.53937    1.000
    N757     N        0.13386    0.20521    0.53599    1.000
    Si758    Si       0.11642    0.22920    0.59768    1.000
    Si759    Si       0.12863    0.14699    0.61715    1.000
    N760     N        0.13300    0.19173    0.61380    1.000
    N761     N        0.14892    0.25360    0.58340    1.000
    Si762    Si       0.11442    0.03727    0.73655    1.000
    N763     N        0.12093    0.03516    0.63686    1.000
    Si764    Si       0.15619    0.03652    0.66339    1.000
    N765     N        0.12787    0.01839    0.69798    1.000
    N766     N        0.16275    0.07822    0.67224    1.000
    N767     N        0.14262    0.12871    0.71865    1.000
    N768     N        0.14536    0.14794    0.65564    1.000
    Si769    Si       0.12380    0.16880    0.69038    1.000
    Si770    Si       0.11659    0.24372    0.66855    1.000
    Si771    Si       0.16395    0.19183    0.65140    1.000
    N772     N        0.16085    0.23745    0.65557    1.000
    N773     N        0.12783    0.07860    0.83654    1.000
    N774     N        0.13595    0.03959    0.77296    1.000
    Si775    Si       0.15251    0.07167    0.79930    1.000
    N776     N        0.15210    0.11223    0.78229    1.000
    N777     N        0.14803    0.21666    0.84091    1.000
    N778     N        0.14392    0.18474    0.77451    1.000
    Si779    Si       0.14825    0.22126    0.79757    1.000
    Si780    Si       0.12694    0.14763    0.78979    1.000
    N781     N        0.11807    0.25150    0.78649    1.000
    N782     N        0.10998    0.14433    0.83044    1.000
    Si783    Si       0.11993    0.23403    0.87035    1.000
    Si784    Si       0.13455    0.05964    0.87544    1.000
    N785     N        0.12057    0.10820    0.96167    1.000
    Si786    Si       0.12774    0.06474    0.95416    1.000
    N787     N        0.14392    0.07603    0.91506    1.000
    N788     N        0.15592    0.03477    0.96910    1.000
    Si789    Si       0.15828    0.21950    0.92718    1.000
    Si790    Si       0.11897    0.19001    0.98446    1.000
    N791     N        0.12636    0.19359    0.94210    1.000
    N792     N        0.14250    0.25207    0.90307    1.000
    N793     N        0.15235    0.16425    0.99971    1.000
    N794     N        0.15303    0.32250    0.07829    1.000
    Si795    Si       0.12491    0.34906    0.05651    1.000
    Si796    Si       0.15023    0.28269    0.06178    1.000
    N797     N        0.15513    0.27970    0.01871    1.000
    N798     N        0.11769    0.33346    0.01676    1.000
    N799     N        0.14519    0.38811    0.05455    1.000
    N800     N        0.13714    0.46286    0.06754    1.000
    Si801    Si       0.11950    0.42239    0.05877    1.000
    N802     N        0.14884    0.44224    0.99894    1.000
    N803     N        0.13048    0.49854    0.00981    1.000
    Si804    Si       0.11057    0.46496    0.10384    1.000
    Si805    Si       0.10438    0.46571    0.99831    1.000
    Si806    Si       0.16466    0.32848    0.12036    1.000
    N807     N        0.15011    0.29997    0.22172    1.000
    N808     N        0.14049    0.36756    0.21456    1.000
    N809     N        0.13560    0.35243    0.13971    1.000
    Si810    Si       0.11666    0.35988    0.17898    1.000
    N811     N        0.16738    0.29020    0.14478    1.000
    Si812    Si       0.14380    0.33596    0.24759    1.000
    N813     N        0.13336    0.47612    0.13959    1.000
    N814     N        0.11477    0.48244    0.21000    1.000
    N815     N        0.15994    0.43442    0.20033    1.000
    Si816    Si       0.14367    0.46774    0.18133    1.000
    Si817    Si       0.13763    0.40891    0.23001    1.000
    N818     N        0.12493    0.35590    0.28105    1.000
    Si819    Si       0.11235    0.28865    0.36248    1.000
    N820     N        0.15909    0.28807    0.28629    1.000
    Si821    Si       0.15576    0.38049    0.30127    1.000
    N822     N        0.13802    0.41386    0.32237    1.000
    N823     N        0.13111    0.48032    0.28033    1.000
    Si824    Si       0.15307    0.44396    0.29166    1.000
    N825     N        0.14375    0.49145    0.34444    1.000
    Si826    Si       0.10903    0.47747    0.37016    1.000
    N827     N        0.16729    0.40734    0.26559    1.000
    Si828    Si       0.13778    0.25832    0.42684    1.000
    N829     N        0.13277    0.32644    0.37258    1.000
    N830     N        0.16463    0.35207    0.43201    1.000
    Si831    Si       0.12705    0.35928    0.45151    1.000
    N832     N        0.12675    0.34006    0.48977    1.000
    N833     N        0.10996    0.47308    0.46807    1.000
    N834     N        0.11809    0.45118    0.40377    1.000
    Si835    Si       0.11649    0.48722    0.42839    1.000
    Si836    Si       0.12389    0.43299    0.48312    1.000
    N837     N        0.11992    0.40261    0.45432    1.000
    N838     N        0.15697    0.49889    0.43774    1.000
    N839     N        0.16326    0.44916    0.49228    1.000
    Si840    Si       0.15334    0.49340    0.48106    1.000
    Si841    Si       0.13721    0.31577    0.52418    1.000
    N842     N        0.12451    0.27261    0.52076    1.000
    N843     N        0.14611    0.36019    0.59300    1.000
    N844     N        0.13990    0.48226    0.54468    1.000
    N845     N        0.15372    0.42416    0.56156    1.000
    N846     N        0.14806    0.49030    0.61323    1.000
    Si847    Si       0.11620    0.44628    0.55563    1.000
    Si848    Si       0.16588    0.39845    0.59112    1.000
    N849     N        0.14326    0.33523    0.67829    1.000
    Si850    Si       0.13959    0.30334    0.70732    1.000
    N851     N        0.10864    0.27719    0.69194    1.000
    Si852    Si       0.10572    0.34856    0.66268    1.000
    N853     N        0.14429    0.46890    0.73935    1.000
    Si854    Si       0.16004    0.48527    0.65417    1.000
    Si855    Si       0.12112    0.48338    0.70309    1.000
    N856     N        0.13387    0.45408    0.67205    1.000
    Si857    Si       0.15462    0.42588    0.74314    1.000
    Si858    Si       0.14179    0.41202    0.66741    1.000
    N859     N        0.16191    0.40146    0.70509    1.000
    N860     N        0.12870    0.36103    0.82710    1.000
    Si861    Si       0.13571    0.29251    0.78495    1.000
    Si862    Si       0.15223    0.33208    0.84863    1.000
    N863     N        0.16081    0.29927    0.82004    1.000
    N864     N        0.15440    0.30034    0.74760    1.000
    Si865    Si       0.13754    0.40120    0.81391    1.000
    N866     N        0.12688    0.40653    0.77018    1.000
    N867     N        0.13432    0.43437    0.84214    1.000
    Si868    Si       0.16335    0.50295    0.76013    1.000
    Si869    Si       0.14184    0.50219    0.85048    1.000
    Si870    Si       0.15217    0.29460    0.91463    1.000
    N871     N        0.12989    0.31551    0.88253    1.000
    N872     N        0.13506    0.30480    0.95283    1.000
    Si873    Si       0.15139    0.31614    0.99329    1.000
    Si874    Si       0.16086    0.41250    0.97001    1.000
    N875     N        0.12797    0.39358    0.94824    1.000
    N876     N        0.11924    0.48203    0.88719    1.000
    N877     N        0.12270    0.60300    0.08944    1.000
    N878     N        0.11809    0.56383    0.01854    1.000
    Si879    Si       0.15192    0.57026    0.10213    1.000
    N880     N        0.15559    0.62079    0.02881    1.000
    Si881    Si       0.11975    0.62571    0.05347    1.000
    Si882    Si       0.15966    0.57636    0.02615    1.000
    N883     N        0.12468    0.72329    0.03592    1.000
    Si884    Si       0.14170    0.68742    0.10345    1.000
    N885     N        0.11720    0.66687    0.06817    1.000
    N886     N        0.10852    0.72326    0.09863    1.000
    N887     N        0.12729    0.53790    0.11978    1.000
    Si888    Si       0.12577    0.61849    0.12920    1.000
    N889     N        0.13665    0.54764    0.19866    1.000
    Si890    Si       0.12128    0.59102    0.19739    1.000
    N891     N        0.15866    0.61171    0.20308    1.000
    Si892    Si       0.15787    0.51221    0.13460    1.000
    Si893    Si       0.13338    0.75389    0.12287    1.000
    N894     N        0.12617    0.71096    0.19262    1.000
    N895     N        0.15882    0.71969    0.13303    1.000
    N896     N        0.12407    0.66136    0.13473    1.000
    Si897    Si       0.11502    0.75312    0.19812    1.000
    Si898    Si       0.11376    0.68849    0.22874    1.000
    N899     N        0.13143    0.55168    0.29112    1.000
    N900     N        0.15093    0.62045    0.31140    1.000
    Si901    Si       0.15814    0.61311    0.35412    1.000
    Si902    Si       0.12715    0.51270    0.30960    1.000
    Si903    Si       0.16223    0.57893    0.30492    1.000
    N904     N        0.16727    0.57121    0.34736    1.000
    N905     N        0.11292    0.68274    0.30948    1.000
    Si906    Si       0.14768    0.65915    0.29187    1.000
    Si907    Si       0.11813    0.70725    0.34534    1.000
    N908     N        0.15856    0.69706    0.35972    1.000
    N909     N        0.11778    0.74997    0.34886    1.000
    N910     N        0.14039    0.66090    0.24913    1.000
    N911     N        0.12503    0.63462    0.37330    1.000
    N912     N        0.11104    0.70277    0.49334    1.000
    N913     N        0.13820    0.67314    0.42387    1.000
    N914     N        0.16490    0.72661    0.45370    1.000
    Si915    Si       0.13116    0.56196    0.58736    1.000
    Si916    Si       0.11250    0.51706    0.53713    1.000
    N917     N        0.15721    0.62572    0.58705    1.000
    N918     N        0.12854    0.53221    0.49925    1.000
    N919     N        0.10471    0.52763    0.57771    1.000
    Si920    Si       0.11895    0.63230    0.56927    1.000
    N921     N        0.11432    0.63926    0.52577    1.000
    Si922    Si       0.13754    0.67368    0.51208    1.000
    Si923    Si       0.14041    0.69817    0.58470    1.000
    N924     N        0.13080    0.74161    0.60060    1.000
    Si925    Si       0.12755    0.74353    0.50623    1.000
    N926     N        0.15707    0.69458    0.54448    1.000
    N927     N        0.16071    0.69127    0.62353    1.000
    Si928    Si       0.14274    0.61594    0.62713    1.000
    Si929    Si       0.13378    0.55674    0.67013    1.000
    N930     N        0.13772    0.57050    0.62926    1.000
    N931     N        0.13904    0.51565    0.68044    1.000
    Si932    Si       0.14835    0.57358    0.74095    1.000
    N933     N        0.16113    0.57499    0.69822    1.000
    N934     N        0.11283    0.60152    0.74347    1.000
    N935     N        0.10310    0.63116    0.63827    1.000
    N936     N        0.14807    0.70272    0.72148    1.000
    Si937    Si       0.13700    0.72497    0.64089    1.000
    N938     N        0.16028    0.74763    0.66813    1.000
    Si939    Si       0.14144    0.74364    0.70707    1.000
    N940     N        0.13540    0.62180    0.80753    1.000
    N941     N        0.13387    0.53464    0.75084    1.000
    Si942    Si       0.11457    0.52734    0.79001    1.000
    N943     N        0.16070    0.51791    0.80148    1.000
    N944     N        0.15860    0.73989    0.83537    1.000
    N945     N        0.15274    0.68164    0.79058    1.000
    Si946    Si       0.13020    0.66131    0.82767    1.000
    N947     N        0.11747    0.74073    0.77740    1.000
    Si948    Si       0.12482    0.70072    0.75984    1.000
    Si949    Si       0.11634    0.73391    0.81998    1.000
    N950     N        0.16162    0.67109    0.85647    1.000
    N951     N        0.10756    0.64143    0.86752    1.000
    N952     N        0.14679    0.53766    0.87571    1.000
    N953     N        0.11824    0.53497    0.94789    1.000
    Si954    Si       0.13252    0.53451    0.98738    1.000
    Si955    Si       0.13293    0.51416    0.91214    1.000
    Si956    Si       0.11976    0.73250    0.92384    1.000
    N957     N        0.15507    0.75363    0.90924    1.000
    N958     N        0.11191    0.70031    0.89626    1.000
    N959     N        0.15814    0.65991    0.93060    1.000
    N960     N        0.12531    0.71212    0.96271    1.000
    Si961    Si       0.13624    0.66553    0.89274    1.000
    Si962    Si       0.16435    0.69046    0.96230    1.000
    N963     N        0.14509    0.78927    0.02370    1.000
    Si964    Si       0.12844    0.82677    0.01585    1.000
    N965     N        0.15095    0.77292    0.08809    1.000
    N966     N        0.12782    0.85659    0.04881    1.000
    Si967    Si       0.14157    0.85082    0.09104    1.000
    Si968    Si       0.12691    0.76435    0.05216    1.000
    N969     N        0.11076    0.82341    0.11176    1.000
    N970     N        0.14855    0.88675    0.11053    1.000
    Si971    Si       0.11746    0.89563    0.03052    1.000
    Si972    Si       0.14549    0.92519    0.09122    1.000
    N973     N        0.15696    0.91012    0.01750    1.000
    N974     N        0.11772    0.99945    0.06501    1.000
    Si975    Si       0.15875    0.98499    0.05997    1.000
    N976     N        0.10921    0.92040    0.06715    1.000
    Si977    Si       0.11696    0.81898    0.15426    1.000
    N978     N        0.11880    0.77277    0.15876    1.000
    N979     N        0.15280    0.84064    0.17125    1.000
    N980     N        0.13748    0.77060    0.22845    1.000
    Si981    Si       0.15904    0.84094    0.21509    1.000
    N982     N        0.12521    0.83443    0.24373    1.000
    N983     N        0.13066    0.95251    0.12104    1.000
    N984     N        0.14922    0.95293    0.23101    1.000
    Si985    Si       0.13569    0.98925    0.14384    1.000
    Si986    Si       0.14138    0.91129    0.21653    1.000
    Si987    Si       0.13536    0.98325    0.20423    1.000
    N988     N        0.16521    0.99142    0.17488    1.000
    N989     N        0.13932    0.90878    0.17364    1.000
    Si990    Si       0.10990    0.93050    0.15032    1.000
    N991     N        0.12493    0.81451    0.35082    1.000
    N992     N        0.15336    0.78657    0.29066    1.000
    Si993    Si       0.12302    0.79472    0.26060    1.000
    Si994    Si       0.12433    0.78276    0.32173    1.000
    N995     N        0.12084    0.95035    0.32417    1.000
    N996     N        0.13702    0.00718    0.29627    1.000
    Si997    Si       0.16169    0.81738    0.37819    1.000
    Si998    Si       0.15571    0.76890    0.44492    1.000
    N999     N        0.12005    0.77153    0.47295    1.000
    N1000    N        0.13231    0.85157    0.45842    1.000
    N1001    N        0.14619    0.78819    0.40769    1.000
    N1002    N        0.16417    0.85577    0.39721    1.000
    Si1003   Si       0.16500    0.87237    0.43760    1.000
    Si1004   Si       0.12556    0.87155    0.49598    1.000
    Si1005   Si       0.14432    0.99425    0.49494    1.000
    N1006    N        0.16009    0.91545    0.43246    1.000
    N1007    N        0.15082    0.90692    0.49705    1.000
    Si1008   Si       0.15119    0.94437    0.39936    1.000
    N1009    N        0.16610    0.98366    0.40083    1.000
    N1010    N        0.16976    0.97373    0.46593    1.000
    N1011    N        0.12576    0.84775    0.53428    1.000
    N1012    N        0.14191    0.79715    0.57853    1.000
    Si1013   Si       0.15820    0.82242    0.61290    1.000
    Si1014   Si       0.15970    0.82556    0.55122    1.000
    Si1015   Si       0.10788    0.77126    0.57845    1.000
    Si1016   Si       0.16165    0.92537    0.59654    1.000
    N1017    N        0.12301    0.96497    0.51985    1.000
    N1018    N        0.13073    0.91382    0.56891    1.000
    Si1019   Si       0.14518    0.93002    0.53256    1.000
    N1020    N        0.16009    0.96908    0.59468    1.000
    Si1021   Si       0.16209    0.86436    0.72766    1.000
    N1022    N        0.13241    0.84812    0.63472    1.000
    N1023    N        0.15801    0.77723    0.73303    1.000
    Si1024   Si       0.12745    0.88450    0.65558    1.000
    N1025    N        0.14007    0.88764    0.69907    1.000
    Si1026   Si       0.13304    0.97459    0.70919    1.000
    N1027    N        0.15195    0.91738    0.64056    1.000
    Si1028   Si       0.12923    0.78145    0.76514    1.000
    N1029    N        0.13719    0.84970    0.76232    1.000
    N1030    N        0.11617    0.86133    0.82594    1.000
    Si1031   Si       0.14683    0.83945    0.80379    1.000
    N1032    N        0.15265    0.79749    0.79908    1.000
    Si1033   Si       0.11369    0.84916    0.86972    1.000
    Si1034   Si       0.14419    0.89516    0.82543    1.000
    N1035    N        0.15422    0.98449    0.81644    1.000
    Si1036   Si       0.15728    0.99849    0.85756    1.000
    N1037    N        0.12864    0.97522    0.75345    1.000
    N1038    N        0.15827    0.92360    0.79422    1.000
    N1039    N        0.15730    0.91966    0.85867    1.000
    Si1040   Si       0.15411    0.00140    0.77717    1.000
    Si1041   Si       0.11212    0.94326    0.78061    1.000
    Si1042   Si       0.11420    0.93601    0.86669    1.000
    N1043    N        0.11474    0.80734    0.88115    1.000
    N1044    N        0.14437    0.85117    0.98593    1.000
    Si1045   Si       0.14471    0.85416    0.93866    1.000
    N1046    N        0.14692    0.86636    0.89355    1.000
    Si1047   Si       0.15289    0.79466    0.89474    1.000
    N1048    N        0.16309    0.81528    0.93118    1.000
    Si1049   Si       0.12922    0.96382    0.92592    1.000
    N1050    N        0.12879    0.97829    0.88138    1.000
    N1051    N        0.11571    0.92449    0.90931    1.000
    N1052    N        0.19802    0.10310    0.07367    1.000
    N1053    N        0.20345    0.04879    0.03475    1.000
    Si1054   Si       0.17430    0.07931    0.04641    1.000
    Si1055   Si       0.21496    0.02431    0.06831    1.000
    N1056    N        0.16930    0.10235    0.00980    1.000
    N1057    N        0.17387    0.01645    0.08468    1.000
    N1058    N        0.19014    0.21622    0.02341    1.000
    Si1059   Si       0.20253    0.23557    0.06009    1.000
    Si1060   Si       0.19234    0.17997    0.99988    1.000
    N1061    N        0.22242    0.15099    0.01308    1.000
    N1062    N        0.20180    0.11524    0.17337    1.000
    Si1063   Si       0.19695    0.07433    0.19029    1.000
    N1064    N        0.22222    0.04740    0.17110    1.000
    N1065    N        0.21874    0.08834    0.22523    1.000
    N1066    N        0.17058    0.12567    0.23801    1.000
    Si1067   Si       0.20855    0.13241    0.21352    1.000
    Si1068   Si       0.17353    0.20956    0.18722    1.000
    N1069    N        0.18330    0.24827    0.20493    1.000
    N1070    N        0.18467    0.17161    0.20150    1.000
    N1071    N        0.18482    0.21844    0.14584    1.000
    N1072    N        0.18299    0.14797    0.12504    1.000
    Si1073   Si       0.22201    0.13907    0.13974    1.000
    N1074    N        0.19355    0.04661    0.31449    1.000
    Si1075   Si       0.17812    0.09462    0.27016    1.000
    Si1076   Si       0.18175    0.02440    0.34985    1.000
    N1077    N        0.21266    0.10619    0.29519    1.000
    Si1078   Si       0.17319    0.02509    0.28299    1.000
    Si1079   Si       0.18057    0.21073    0.30220    1.000
    N1080    N        0.18154    0.16883    0.31441    1.000
    Si1081   Si       0.21761    0.14127    0.31898    1.000
    N1082    N        0.21626    0.03589    0.37465    1.000
    Si1083   Si       0.19410    0.12559    0.39077    1.000
    N1084    N        0.19817    0.10382    0.47779    1.000
    Si1085   Si       0.20649    0.07325    0.44722    1.000
    N1086    N        0.21149    0.09125    0.40821    1.000
    N1087    N        0.17617    0.04296    0.44541    1.000
    Si1088   Si       0.19993    0.14532    0.46481    1.000
    N1089    N        0.18233    0.15094    0.42429    1.000
    N1090    N        0.16493    0.15444    0.49140    1.000
    Si1091   Si       0.18047    0.04791    0.53801    1.000
    Si1092   Si       0.20371    0.02877    0.60397    1.000
    N1093    N        0.21706    0.11316    0.55519    1.000
    Si1094   Si       0.22136    0.09577    0.51579    1.000
    N1095    N        0.22058    0.05131    0.52318    1.000
    N1096    N        0.17117    0.00854    0.52531    1.000
    N1097    N        0.16819    0.03958    0.57984    1.000
    Si1098   Si       0.19962    0.14352    0.58070    1.000
    N1099    N        0.19534    0.24404    0.53075    1.000
    N1100    N        0.19206    0.17583    0.55255    1.000
    Si1101   Si       0.21788    0.21147    0.55065    1.000
    N1102    N        0.21536    0.25487    0.61296    1.000
    N1103    N        0.19032    0.01720    0.64451    1.000
    N1104    N        0.20836    0.12476    0.67919    1.000
    N1105    N        0.19980    0.08558    0.73500    1.000
    Si1106   Si       0.16462    0.11780    0.68300    1.000
    Si1107   Si       0.18846    0.24599    0.69158    1.000
    N1108    N        0.18798    0.22954    0.73200    1.000
    Si1109   Si       0.17378    0.18931    0.73734    1.000
    N1110    N        0.20614    0.18693    0.64601    1.000
    N1111    N        0.16218    0.18757    0.69737    1.000
    N1112    N        0.19470    0.05838    0.79674    1.000
    Si1113   Si       0.20846    0.04605    0.75498    1.000
    Si1114   Si       0.17625    0.12193    0.74762    1.000
    Si1115   Si       0.21071    0.14450    0.86145    1.000
    N1116    N        0.18413    0.24579    0.79524    1.000
    N1117    N        0.20794    0.17817    0.83395    1.000
    Si1118   Si       0.18928    0.20965    0.85911    1.000
    Si1119   Si       0.21358    0.24368    0.76378    1.000
    N1120    N        0.19884    0.15789    0.75554    1.000
    N1121    N        0.20526    0.25154    0.85888    1.000
    Si1122   Si       0.22068    0.17178    0.79142    1.000
    N1123    N        0.17120    0.03662    0.87112    1.000
    Si1124   Si       0.20523    0.11840    0.98836    1.000
    Si1125   Si       0.21130    0.03883    0.88770    1.000
    Si1126   Si       0.18074    0.10265    0.91794    1.000
    N1127    N        0.21673    0.07428    0.91411    1.000
    N1128    N        0.19505    0.13018    0.94810    1.000
    N1129    N        0.17830    0.12893    0.88593    1.000
    N1130    N        0.21863    0.01037    0.97827    1.000
    N1131    N        0.17703    0.24337    0.95878    1.000
    N1132    N        0.18526    0.19662    0.90086    1.000
    Si1133   Si       0.20654    0.16754    0.92541    1.000
    N1134    N        0.21330    0.19293    0.96114    1.000
    Si1135   Si       0.22006    0.23740    0.95509    1.000
    N1136    N        0.21987    0.36864    0.04942    1.000
    N1137    N        0.21868    0.27533    0.05079    1.000
    N1138    N        0.20741    0.33789    0.11981    1.000
    N1139    N        0.18274    0.38600    0.99528    1.000
    Si1140   Si       0.22613    0.29561    0.01276    1.000
    Si1141   Si       0.18466    0.39230    0.03765    1.000
    N1142    N        0.19214    0.50271    0.04249    1.000
    N1143    N        0.19688    0.43422    0.04480    1.000
    N1144    N        0.22025    0.40279    0.10799    1.000
    Si1145   Si       0.16499    0.46634    0.03331    1.000
    Si1146   Si       0.17636    0.28918    0.18705    1.000
    N1147    N        0.21627    0.30748    0.18661    1.000
    N1148    N        0.17990    0.49600    0.17109    1.000
    Si1149   Si       0.21349    0.47560    0.15161    1.000
    N1150    N        0.21440    0.39144    0.21862    1.000
    N1151    N        0.22408    0.43882    0.17052    1.000
    N1152    N        0.21976    0.45720    0.24080    1.000
    Si1153   Si       0.20382    0.43087    0.20820    1.000
    Si1154   Si       0.18706    0.31898    0.30192    1.000
    N1155    N        0.18538    0.34302    0.26289    1.000
    Si1156   Si       0.20873    0.36544    0.36098    1.000
    N1157    N        0.18167    0.35596    0.32638    1.000
    N1158    N        0.21577    0.27850    0.25269    1.000
    N1159    N        0.21773    0.29554    0.31958    1.000
    Si1160   Si       0.20504    0.38094    0.25853    1.000
    Si1161   Si       0.17490    0.26726    0.24702    1.000
    N1162    N        0.19110    0.45633    0.30720    1.000
    Si1163   Si       0.18557    0.47954    0.34501    1.000
    N1164    N        0.20537    0.32554    0.37850    1.000
    Si1165   Si       0.20531    0.36807    0.43223    1.000
    N1166    N        0.17452    0.28575    0.42516    1.000
    Si1167   Si       0.21886    0.28778    0.42873    1.000
    Si1168   Si       0.16737    0.32223    0.40012    1.000
    N1169    N        0.20540    0.39111    0.39559    1.000
    N1170    N        0.20994    0.45504    0.44301    1.000
    Si1171   Si       0.21795    0.43179    0.40416    1.000
    Si1172   Si       0.20127    0.43102    0.47755    1.000
    N1173    N        0.19545    0.46331    0.38413    1.000
    N1174    N        0.21729    0.39269    0.46590    1.000
    Si1175   Si       0.19515    0.49104    0.41931    1.000
    N1176    N        0.17446    0.32275    0.54417    1.000
    Si1177   Si       0.17744    0.32997    0.58946    1.000
    Si1178   Si       0.21901    0.32974    0.54200    1.000
    Si1179   Si       0.17171    0.26167    0.61886    1.000
    N1180    N        0.22354    0.32090    0.58540    1.000
    N1181    N        0.20876    0.39164    0.58699    1.000
    N1182    N        0.21328    0.42930    0.52242    1.000
    N1183    N        0.20288    0.47822    0.56034    1.000
    Si1184   Si       0.17533    0.45150    0.53595    1.000
    Si1185   Si       0.17123    0.50176    0.57889    1.000
    N1186    N        0.17229    0.30381    0.62262    1.000
    N1187    N        0.20301    0.34699    0.73582    1.000
    N1188    N        0.21136    0.35267    0.65111    1.000
    Si1189   Si       0.19686    0.30501    0.73283    1.000
    Si1190   Si       0.18089    0.32086    0.66012    1.000
    N1191    N        0.18648    0.29123    0.69374    1.000
    Si1192   Si       0.22042    0.49600    0.71109    1.000
    N1193    N        0.16932    0.40788    0.63459    1.000
    Si1194   Si       0.21176    0.39140    0.63182    1.000
    N1195    N        0.20417    0.49207    0.66830    1.000
    Si1196   Si       0.19962    0.38775    0.71917    1.000
    N1197    N        0.19117    0.34709    0.85986    1.000
    Si1198   Si       0.19706    0.27561    0.82463    1.000
    Si1199   Si       0.21372    0.38431    0.84890    1.000
    N1200    N        0.18142    0.40063    0.81969    1.000
    Si1201   Si       0.21297    0.41377    0.79240    1.000
    N1202    N        0.19714    0.41537    0.75329    1.000
    N1203    N        0.17903    0.48234    0.85832    1.000
    Si1204   Si       0.18412    0.44205    0.84321    1.000
    N1205    N        0.21153    0.45342    0.81129    1.000
    N1206    N        0.20526    0.49196    0.75130    1.000
    N1207    N        0.19601    0.30060    0.90925    1.000
    Si1208   Si       0.20800    0.35855    0.97210    1.000
    N1209    N        0.20300    0.36437    0.93064    1.000
    Si1210   Si       0.21495    0.33788    0.89580    1.000
    N1211    N        0.19696    0.32240    0.99131    1.000
    Si1212   Si       0.22318    0.27243    0.89122    1.000
    Si1213   Si       0.21483    0.40556    0.91672    1.000
    Si1214   Si       0.20042    0.50113    0.89231    1.000
    Si1215   Si       0.19909    0.47288    0.94682    1.000
    N1216    N        0.17067    0.49747    0.92758    1.000
    N1217    N        0.21930    0.48883    0.98114    1.000
    N1218    N        0.20413    0.42033    0.87527    1.000
    N1219    N        0.19076    0.42863    0.94393    1.000
    Si1220   Si       0.20117    0.52931    0.07365    1.000
    Si1221   Si       0.20465    0.52116    0.00490    1.000
    N1222    N        0.17514    0.56405    0.06500    1.000
    N1223    N        0.19035    0.53262    0.11526    1.000
    N1224    N        0.17115    0.68204    0.00284    1.000
    Si1225   Si       0.18875    0.64383    0.01277    1.000
    N1226    N        0.19386    0.74167    0.03833    1.000
    N1227    N        0.17704    0.68653    0.07627    1.000
    Si1228   Si       0.21774    0.67221    0.07848    1.000
    N1229    N        0.22209    0.64799    0.04163    1.000
    Si1230   Si       0.16470    0.70719    0.03823    1.000
    N1231    N        0.22394    0.64811    0.11552    1.000
    Si1232   Si       0.17603    0.53101    0.19851    1.000
    N1233    N        0.19502    0.52391    0.23559    1.000
    N1234    N        0.20024    0.55921    0.17743    1.000
    Si1235   Si       0.18702    0.60024    0.17299    1.000
    Si1236   Si       0.22134    0.54634    0.14167    1.000
    N1237    N        0.22197    0.62552    0.18404    1.000
    N1238    N        0.16660    0.59788    0.13441    1.000
    N1239    N        0.18020    0.67261    0.18465    1.000
    N1240    N        0.20466    0.64013    0.24729    1.000
    Si1241   Si       0.16880    0.71347    0.17386    1.000
    Si1242   Si       0.17168    0.64742    0.21930    1.000
    N1243    N        0.19053    0.74466    0.19197    1.000
    Si1244   Si       0.21870    0.66213    0.15897    1.000
    N1245    N        0.20309    0.57316    0.29301    1.000
    N1246    N        0.21209    0.51308    0.33872    1.000
    Si1247   Si       0.20252    0.54894    0.36197    1.000
    Si1248   Si       0.22006    0.55346    0.25861    1.000
    N1249    N        0.19730    0.74811    0.32883    1.000
    Si1250   Si       0.19106    0.70552    0.33231    1.000
    N1251    N        0.18304    0.68168    0.29861    1.000
    Si1252   Si       0.21725    0.66294    0.28157    1.000
    N1253    N        0.20815    0.75500    0.26029    1.000
    N1254    N        0.20499    0.53276    0.40460    1.000
    N1255    N        0.18831    0.63183    0.37632    1.000
    N1256    N        0.16923    0.66077    0.48464    1.000
    N1257    N        0.20117    0.68388    0.41503    1.000
    Si1258   Si       0.17180    0.68617    0.44930    1.000
    Si1259   Si       0.16814    0.66775    0.39053    1.000
    N1260    N        0.22182    0.75089    0.39879    1.000
    N1261    N        0.20169    0.52509    0.60459    1.000
    Si1262   Si       0.20843    0.55332    0.57101    1.000
    N1263    N        0.21905    0.59041    0.59145    1.000
    Si1264   Si       0.20040    0.62724    0.57983    1.000
    N1265    N        0.16436    0.54448    0.55813    1.000
    Si1266   Si       0.16576    0.54933    0.51263    1.000
    Si1267   Si       0.19385    0.62621    0.49962    1.000
    N1268    N        0.18100    0.58715    0.49739    1.000
    N1269    N        0.18848    0.51497    0.49834    1.000
    N1270    N        0.20927    0.63832    0.53789    1.000
    N1271    N        0.21627    0.65463    0.61016    1.000
    N1272    N        0.19843    0.74116    0.57566    1.000
    Si1273   Si       0.19089    0.72331    0.53610    1.000
    N1274    N        0.16757    0.75442    0.51800    1.000
    N1275    N        0.17136    0.62959    0.65476    1.000
    Si1276   Si       0.18907    0.60711    0.68649    1.000
    Si1277   Si       0.18376    0.67842    0.71612    1.000
    N1278    N        0.20502    0.68320    0.67787    1.000
    Si1279   Si       0.18962    0.66593    0.64144    1.000
    N1280    N        0.19147    0.63307    0.72278    1.000
    N1281    N        0.22593    0.73583    0.64201    1.000
    Si1282   Si       0.19107    0.54915    0.80197    1.000
    N1283    N        0.18548    0.57584    0.83535    1.000
    N1284    N        0.18116    0.58274    0.77010    1.000
    Si1285   Si       0.17570    0.60747    0.80657    1.000
    Si1286   Si       0.21093    0.61112    0.75394    1.000
    N1287    N        0.20741    0.63400    0.79264    1.000
    Si1288   Si       0.18310    0.70811    0.84786    1.000
    Si1289   Si       0.19666    0.67657    0.78608    1.000
    N1290    N        0.21319    0.70032    0.81680    1.000
    N1291    N        0.21206    0.68978    0.74778    1.000
    Si1292   Si       0.17915    0.56670    0.87692    1.000
    N1293    N        0.17765    0.59639    0.90809    1.000
    N1294    N        0.21442    0.54125    0.89030    1.000
    N1295    N        0.20155    0.62813    0.97304    1.000
    Si1296   Si       0.19002    0.62969    0.93232    1.000
    N1297    N        0.17346    0.54774    0.99536    1.000
    N1298    N        0.21188    0.71569    0.88000    1.000
    Si1299   Si       0.19510    0.73712    0.91392    1.000
    N1300    N        0.20086    0.70727    0.94498    1.000
    Si1301   Si       0.18684    0.77937    0.02054    1.000
    Si1302   Si       0.18800    0.79349    0.08910    1.000
    N1303    N        0.20409    0.80560    0.04999    1.000
    N1304    N        0.18243    0.83329    0.10371    1.000
    N1305    N        0.20945    0.86230    0.00988    1.000
    N1306    N        0.22006    0.76472    0.09990    1.000
    Si1307   Si       0.18910    0.93763    0.02703    1.000
    N1308    N        0.17972    0.94686    0.07392    1.000
    N1309    N        0.17251    0.97807    0.01807    1.000
    Si1310   Si       0.22126    0.95909    0.08509    1.000
    N1311    N        0.18841    0.81354    0.22998    1.000
    Si1312   Si       0.18103    0.76942    0.22797    1.000
    N1313    N        0.20812    0.87946    0.14598    1.000
    N1314    N        0.17180    0.88184    0.22287    1.000
    Si1315   Si       0.16488    0.87902    0.15303    1.000
    Si1316   Si       0.21287    0.89314    0.23098    1.000
    N1317    N        0.22538    0.98690    0.11986    1.000
    N1318    N        0.21539    0.93659    0.23060    1.000
    Si1319   Si       0.19289    0.77500    0.29619    1.000
    N1320    N        0.19460    0.86633    0.33180    1.000
    N1321    N        0.20016    0.80859    0.36114    1.000
    N1322    N        0.21811    0.81013    0.29615    1.000
    Si1323   Si       0.22151    0.83320    0.33194    1.000
    N1324    N        0.22062    0.87274    0.26913    1.000
    Si1325   Si       0.21965    0.76976    0.36020    1.000
    Si1326   Si       0.22050    0.82854    0.25828    1.000
    N1327    N        0.18092    0.93042    0.29413    1.000
    N1328    N        0.19433    0.98081    0.33998    1.000
    N1329    N        0.19796    0.99445    0.26461    1.000
    Si1330   Si       0.20808    0.89555    0.30207    1.000
    Si1331   Si       0.18515    0.95298    0.25671    1.000
    N1332    N        0.16778    0.92302    0.36533    1.000
    Si1333   Si       0.16435    0.94916    0.32995    1.000
    N1334    N        0.20216    0.86089    0.45761    1.000
    N1335    N        0.19292    0.78563    0.45887    1.000
    Si1336   Si       0.18269    0.00118    0.43435    1.000
    N1337    N        0.21705    0.93117    0.48088    1.000
    Si1338   Si       0.18658    0.88435    0.37121    1.000
    N1339    N        0.22489    0.98774    0.42766    1.000
    Si1340   Si       0.17320    0.93117    0.46950    1.000
    N1341    N        0.18472    0.82477    0.51616    1.000
    Si1342   Si       0.21278    0.87143    0.57081    1.000
    N1343    N        0.18501    0.84141    0.58335    1.000
    Si1344   Si       0.19526    0.78529    0.50210    1.000
    Si1345   Si       0.22143    0.81579    0.60661    1.000
    Si1346   Si       0.16688    0.76436    0.59392    1.000
    Si1347   Si       0.21312    0.85394    0.50020    1.000
    N1348    N        0.21330    0.88534    0.52994    1.000
    N1349    N        0.20139    0.90407    0.59671    1.000
    Si1350   Si       0.18226    0.98523    0.56173    1.000
    N1351    N        0.18449    0.94676    0.54021    1.000
    N1352    N        0.21953    0.99437    0.58388    1.000
    Si1353   Si       0.21946    0.92765    0.52470    1.000
    N1354    N        0.18542    0.79073    0.62262    1.000
    N1355    N        0.22123    0.78115    0.69454    1.000
    Si1356   Si       0.19557    0.79933    0.72460    1.000
    N1357    N        0.18674    0.83769    0.70408    1.000
    Si1358   Si       0.19845    0.76679    0.65849    1.000
    Si1359   Si       0.22051    0.85425    0.68042    1.000
    N1360    N        0.21438    0.94993    0.64497    1.000
    Si1361   Si       0.22137    0.98938    0.65823    1.000
    N1362    N        0.17240    0.95903    0.69911    1.000
    N1363    N        0.20895    0.89445    0.67008    1.000
    Si1364   Si       0.20344    0.97227    0.72796    1.000
    Si1365   Si       0.18089    0.92733    0.67183    1.000
    N1366    N        0.17688    0.86396    0.82395    1.000
    N1367    N        0.18106    0.80689    0.86215    1.000
    Si1368   Si       0.17916    0.77891    0.82748    1.000
    Si1369   Si       0.20456    0.84316    0.85046    1.000
    N1370    N        0.21896    0.77037    0.81346    1.000
    N1371    N        0.22040    0.81386    0.75702    1.000
    N1372    N        0.19410    0.88496    0.74902    1.000
    N1373    N        0.19463    0.97477    0.85923    1.000
    Si1374   Si       0.20263    0.91392    0.78092    1.000
    Si1375   Si       0.17764    0.94742    0.82998    1.000
    N1376    N        0.21575    0.93164    0.81790    1.000
    N1377    N        0.18975    0.00643    0.75319    1.000
    Si1378   Si       0.20221    0.80372    0.94701    1.000
    N1379    N        0.21242    0.87113    0.88385    1.000
    N1380    N        0.21218    0.78637    0.98612    1.000
    N1381    N        0.21957    0.77189    0.92175    1.000
    Si1382   Si       0.18760    0.93248    0.94923    1.000
    Si1383   Si       0.17524    0.88087    0.99086    1.000
    N1384    N        0.17216    0.89046    0.94732    1.000
    Si1385   Si       0.17726    0.89802    0.89333    1.000
    Si1386   Si       0.22175    0.96516    0.88934    1.000
    N1387    N        0.20622    0.93226    0.90972    1.000
    N1388    N        0.20902    0.93124    0.98607    1.000
    N1389    N        0.16477    0.96896    0.94904    1.000
    Si1390   Si       0.17743    0.99774    0.98013    1.000
    N1391    N        0.27119    0.09381    0.05698    1.000
    N1392    N        0.26760    0.03464    0.01966    1.000
    Si1393   Si       0.23875    0.09030    0.08561    1.000
    N1394    N        0.23414    0.04960    0.09779    1.000
    N1395    N        0.25036    0.11095    0.12336    1.000
    Si1396   Si       0.22852    0.04826    0.99959    1.000
    N1397    N        0.26154    0.20977    0.02614    1.000
    Si1398   Si       0.26462    0.20394    0.06897    1.000
    Si1399   Si       0.26200    0.16539    0.01934    1.000
    N1400    N        0.27349    0.16084    0.06296    1.000
    Si1401   Si       0.27488    0.24224    0.00011    1.000
    Si1402   Si       0.28593    0.26276    0.11945    1.000
    N1403    N        0.22731    0.21192    0.08795    1.000
    Si1404   Si       0.25406    0.02563    0.19309    1.000
    Si1405   Si       0.25622    0.07544    0.24132    1.000
    Si1406   Si       0.23110    0.02663    0.13549    1.000
    N1407    N        0.28012    0.05487    0.21163    1.000
    N1408    N        0.26834    0.01086    0.15476    1.000
    N1409    N        0.24463    0.17618    0.14991    1.000
    Si1410   Si       0.26975    0.16703    0.18486    1.000
    Si1411   Si       0.28102    0.24145    0.17857    1.000
    N1412    N        0.25454    0.24270    0.14433    1.000
    N1413    N        0.24774    0.15087    0.22004    1.000
    Si1414   Si       0.22602    0.21094    0.13229    1.000
    N1415    N        0.26756    0.07710    0.32614    1.000
    N1416    N        0.25152    0.04528    0.27380    1.000
    Si1417   Si       0.22909    0.06919    0.30718    1.000
    N1418    N        0.27961    0.10869    0.25815    1.000
    Si1419   Si       0.25461    0.20257    0.32015    1.000
    N1420    N        0.25033    0.16309    0.29928    1.000
    Si1421   Si       0.26656    0.14937    0.25861    1.000
    N1422    N        0.25377    0.20016    0.36535    1.000
    N1423    N        0.22456    0.13888    0.36107    1.000
    N1424    N        0.22100    0.22576    0.30576    1.000
    Si1425   Si       0.26628    0.02117    0.44946    1.000
    Si1426   Si       0.24529    0.06448    0.39689    1.000
    N1427    N        0.27133    0.02615    0.40372    1.000
    N1428    N        0.24796    0.06146    0.45494    1.000
    Si1429   Si       0.27665    0.08033    0.48008    1.000
    N1430    N        0.28029    0.09027    0.39266    1.000
    N1431    N        0.27816    0.15505    0.41783    1.000
    N1432    N        0.27024    0.22409    0.43170    1.000
    Si1433   Si       0.27224    0.18300    0.45211    1.000
    Si1434   Si       0.26016    0.15875    0.37737    1.000
    Si1435   Si       0.26407    0.23286    0.39025    1.000
    N1436    N        0.23518    0.16978    0.46820    1.000
    Si1437   Si       0.25185    0.02285    0.51591    1.000
    Si1438   Si       0.24281    0.09909    0.58768    1.000
    N1439    N        0.26184    0.11055    0.50573    1.000
    N1440    N        0.23160    0.06310    0.60718    1.000
    N1441    N        0.23549    0.13938    0.60808    1.000
    N1442    N        0.25048    0.22211    0.51998    1.000
    N1443    N        0.24127    0.20239    0.58809    1.000
    Si1444   Si       0.26668    0.16696    0.59008    1.000
    N1445    N        0.27978    0.16558    0.54826    1.000
    N1446    N        0.24203    0.05932    0.68391    1.000
    Si1447   Si       0.25505    0.05109    0.64338    1.000
    Si1448   Si       0.25514    0.02646    0.70941    1.000
    N1449    N        0.26411    0.11055    0.72269    1.000
    Si1450   Si       0.22814    0.09475    0.70463    1.000
    N1451    N        0.25793    0.00673    0.64209    1.000
    Si1452   Si       0.22952    0.15110    0.65071    1.000
    N1453    N        0.27518    0.21911    0.63963    1.000
    N1454    N        0.26924    0.15489    0.66836    1.000
    N1455    N        0.22987    0.24448    0.67911    1.000
    Si1456   Si       0.23247    0.21978    0.63023    1.000
    Si1457   Si       0.26306    0.12014    0.81828    1.000
    N1458    N        0.26639    0.07913    0.80288    1.000
    N1459    N        0.23809    0.03994    0.85355    1.000
    Si1460   Si       0.28169    0.04444    0.78158    1.000
    N1461    N        0.24908    0.03670    0.75095    1.000
    Si1462   Si       0.22666    0.06895    0.82505    1.000
    N1463    N        0.28219    0.01145    0.80906    1.000
    Si1464   Si       0.27096    0.01134    0.85133    1.000
    N1465    N        0.22341    0.11207    0.83608    1.000
    Si1466   Si       0.27440    0.18619    0.77030    1.000
    N1467    N        0.23876    0.21020    0.77758    1.000
    N1468    N        0.25840    0.15056    0.78977    1.000
    N1469    N        0.28310    0.10299    0.92148    1.000
    Si1470   Si       0.25020    0.07689    0.93956    1.000
    N1471    N        0.27141    0.04005    0.94957    1.000
    N1472    N        0.23225    0.08600    0.97870    1.000
    Si1473   Si       0.27862    0.13884    0.89476    1.000
    N1474    N        0.24147    0.24407    0.91567    1.000
    N1475    N        0.23623    0.15267    0.89657    1.000
    Si1476   Si       0.25663    0.36555    0.02352    1.000
    N1477    N        0.26109    0.32099    0.02531    1.000
    N1478    N        0.27126    0.36063    0.09369    1.000
    Si1479   Si       0.22812    0.36253    0.09305    1.000
    N1480    N        0.26714    0.43250    0.06984    1.000
    Si1481   Si       0.25342    0.49557    0.10693    1.000
    N1482    N        0.27897    0.48789    0.02637    1.000
    Si1483   Si       0.22459    0.43477    0.07910    1.000
    N1484    N        0.21796    0.46683    0.10937    1.000
    N1485    N        0.27018    0.30716    0.13748    1.000
    N1486    N        0.24858    0.36807    0.16434    1.000
    Si1487   Si       0.25233    0.37340    0.20645    1.000
    N1488    N        0.26077    0.33664    0.22766    1.000
    Si1489   Si       0.23449    0.32727    0.15198    1.000
    Si1490   Si       0.24186    0.29610    0.21946    1.000
    N1491    N        0.27182    0.26591    0.21215    1.000
    N1492    N        0.24164    0.50914    0.14933    1.000
    Si1493   Si       0.24280    0.40647    0.14557    1.000
    Si1494   Si       0.27781    0.50437    0.17332    1.000
    Si1495   Si       0.23238    0.49860    0.23914    1.000
    N1496    N        0.27786    0.40550    0.21501    1.000
    N1497    N        0.27205    0.30440    0.35376    1.000
    Si1498   Si       0.23430    0.26560    0.28986    1.000
    N1499    N        0.27352    0.27790    0.27881    1.000
    N1500    N        0.24733    0.37758    0.34744    1.000
    Si1501   Si       0.23083    0.29492    0.36056    1.000
    Si1502   Si       0.26312    0.37896    0.30742    1.000
    N1503    N        0.25888    0.46378    0.29774    1.000
    N1504    N        0.23240    0.39801    0.28432    1.000
    Si1505   Si       0.24655    0.50356    0.31284    1.000
    Si1506   Si       0.22345    0.44316    0.28155    1.000
    N1507    N        0.23297    0.26386    0.39151    1.000
    Si1508   Si       0.27457    0.33699    0.44126    1.000
    N1509    N        0.23326    0.26730    0.46484    1.000
    N1510    N        0.23217    0.33067    0.44022    1.000
    Si1511   Si       0.27465    0.26172    0.45298    1.000
    N1512    N        0.28047    0.37633    0.42001    1.000
    Si1513   Si       0.28108    0.46660    0.48096    1.000
    N1514    N        0.28061    0.42073    0.47737    1.000
    Si1515   Si       0.25533    0.38242    0.48909    1.000
    N1516    N        0.25794    0.43501    0.39207    1.000
    N1517    N        0.27648    0.48331    0.44001    1.000
    Si1518   Si       0.27226    0.39599    0.37985    1.000
    N1519    N        0.24154    0.30003    0.52161    1.000
    Si1520   Si       0.24193    0.28611    0.60283    1.000
    N1521    N        0.24101    0.36688    0.52800    1.000
    Si1522   Si       0.27918    0.31706    0.50816    1.000
    N1523    N        0.28009    0.27643    0.58487    1.000
    Si1524   Si       0.23003    0.25956    0.50808    1.000
    Si1525   Si       0.23146    0.40101    0.55118    1.000
    N1526    N        0.26374    0.42819    0.55921    1.000
    Si1527   Si       0.24457    0.46663    0.54599    1.000
    N1528    N        0.25257    0.48584    0.50732    1.000
    N1529    N        0.27208    0.49353    0.56794    1.000
    N1530    N        0.26299    0.29802    0.64035    1.000
    Si1531   Si       0.25092    0.33696    0.65646    1.000
    Si1532   Si       0.25520    0.27945    0.68127    1.000
    N1533    N        0.25093    0.31921    0.69725    1.000
    Si1534   Si       0.25528    0.35177    0.72702    1.000
    N1535    N        0.27849    0.36869    0.64979    1.000
    Si1536   Si       0.26644    0.40153    0.67360    1.000
    N1537    N        0.24965    0.46472    0.70429    1.000
    N1538    N        0.23620    0.42173    0.64841    1.000
    N1539    N        0.24180    0.38874    0.70855    1.000
    N1540    N        0.25622    0.48706    0.63387    1.000
    Si1541   Si       0.23756    0.45991    0.66262    1.000
    N1542    N        0.23882    0.28989    0.81616    1.000
    Si1543   Si       0.25851    0.29601    0.77615    1.000
    N1544    N        0.26218    0.33816    0.76792    1.000
    Si1545   Si       0.27172    0.29513    0.84353    1.000
    Si1546   Si       0.27475    0.36229    0.80285    1.000
    N1547    N        0.22594    0.28161    0.75245    1.000
    N1548    N        0.24248    0.38876    0.81301    1.000
    N1549    N        0.27236    0.48614    0.78760    1.000
    Si1550   Si       0.22696    0.48646    0.78730    1.000
    N1551    N        0.24300    0.37156    0.87984    1.000
    N1552    N        0.24851    0.37007    0.98205    1.000
    N1553    N        0.25492    0.30325    0.88221    1.000
    N1554    N        0.23560    0.26165    0.98776    1.000
    N1555    N        0.25858    0.41730    0.92578    1.000
    Si1556   Si       0.27090    0.40523    0.96698    1.000
    N1557    N        0.22946    0.47533    0.91347    1.000
    Si1558   Si       0.26146    0.47962    0.98651    1.000
    Si1559   Si       0.27648    0.38741    0.89901    1.000
    Si1560   Si       0.26876    0.45992    0.91760    1.000
    N1561    N        0.26324    0.43798    0.99496    1.000
    N1562    N        0.26650    0.60502    0.07162    1.000
    N1563    N        0.24339    0.54385    0.01342    1.000
    Si1564   Si       0.25109    0.61421    0.11297    1.000
    Si1565   Si       0.27117    0.52692    0.04269    1.000
    N1566    N        0.24590    0.52332    0.07881    1.000
    Si1567   Si       0.26106    0.62868    0.03580    1.000
    N1568    N        0.26499    0.60890    0.99686    1.000
    Si1569   Si       0.23076    0.74465    0.06125    1.000
    N1570    N        0.24555    0.70586    0.07286    1.000
    N1571    N        0.24630    0.57876    0.23655    1.000
    N1572    N        0.24864    0.57569    0.13479    1.000
    Si1573   Si       0.23752    0.61875    0.22662    1.000
    N1574    N        0.26193    0.51765    0.21250    1.000
    Si1575   Si       0.28197    0.55707    0.21614    1.000
    N1576    N        0.25390    0.71963    0.21844    1.000
    Si1577   Si       0.23232    0.73458    0.18349    1.000
    N1578    N        0.27394    0.64053    0.23912    1.000
    N1579    N        0.23020    0.70189    0.15610    1.000
    N1580    N        0.24012    0.51998    0.27508    1.000
    Si1581   Si       0.23347    0.59435    0.31554    1.000
    N1582    N        0.23199    0.58019    0.35773    1.000
    N1583    N        0.27538    0.58744    0.31480    1.000
    Si1584   Si       0.27482    0.56004    0.35691    1.000
    N1585    N        0.27948    0.52188    0.33481    1.000
    N1586    N        0.24699    0.69333    0.27674    1.000
    Si1587   Si       0.25411    0.66655    0.33650    1.000
    Si1588   Si       0.24568    0.73349    0.26063    1.000
    N1589    N        0.23044    0.63704    0.31193    1.000
    N1590    N        0.23054    0.69938    0.35175    1.000
    Si1591   Si       0.28342    0.66994    0.27036    1.000
    N1592    N        0.26144    0.64295    0.37272    1.000
    N1593    N        0.26925    0.54872    0.40073    1.000
    N1594    N        0.23299    0.60206    0.42538    1.000
    Si1595   Si       0.25927    0.62183    0.45430    1.000
    N1596    N        0.24810    0.54358    0.46780    1.000
    Si1597   Si       0.23519    0.55620    0.42705    1.000
    Si1598   Si       0.22718    0.61535    0.38426    1.000
    N1599    N        0.26937    0.70088    0.41260    1.000
    Si1600   Si       0.23095    0.70908    0.39619    1.000
    N1601    N        0.25772    0.75066    0.46014    1.000
    N1602    N        0.23221    0.64331    0.47973    1.000
    N1603    N        0.23563    0.54672    0.53708    1.000
    Si1604   Si       0.27648    0.53048    0.54846    1.000
    N1605    N        0.27607    0.62601    0.61638    1.000
    Si1606   Si       0.23077    0.52265    0.50134    1.000
    N1607    N        0.25707    0.70309    0.58610    1.000
    Si1608   Si       0.23558    0.66747    0.51672    1.000
    Si1609   Si       0.23639    0.74003    0.59815    1.000
    Si1610   Si       0.25932    0.66792    0.61208    1.000
    N1611    N        0.27710    0.66534    0.52882    1.000
    Si1612   Si       0.25211    0.74274    0.50241    1.000
    N1613    N        0.22460    0.70870    0.51338    1.000
    Si1614   Si       0.24316    0.59493    0.62860    1.000
    Si1615   Si       0.25347    0.57496    0.69923    1.000
    N1616    N        0.25506    0.55352    0.63771    1.000
    N1617    N        0.24736    0.53113    0.71343    1.000
    N1618    N        0.24937    0.59700    0.74094    1.000
    N1619    N        0.22939    0.60037    0.67148    1.000
    Si1620   Si       0.22702    0.51826    0.63782    1.000
    Si1621   Si       0.23990    0.70561    0.66896    1.000
    Si1622   Si       0.25222    0.70143    0.74105    1.000
    N1623    N        0.25463    0.72635    0.70371    1.000
    N1624    N        0.27204    0.68277    0.65131    1.000
    N1625    N        0.27150    0.60113    0.80767    1.000
    Si1626   Si       0.27192    0.52730    0.79949    1.000
    N1627    N        0.22795    0.52725    0.80094    1.000
    Si1628   Si       0.28230    0.59178    0.76783    1.000
    Si1629   Si       0.24854    0.63835    0.81328    1.000
    N1630    N        0.24774    0.65608    0.85344    1.000
    Si1631   Si       0.24141    0.73227    0.80799    1.000
    N1632    N        0.26290    0.73231    0.77090    1.000
    N1633    N        0.26805    0.72977    0.84395    1.000
    N1634    N        0.26880    0.66548    0.78603    1.000
    Si1635   Si       0.25005    0.69760    0.86823    1.000
    N1636    N        0.26121    0.58883    0.87677    1.000
    N1637    N        0.24679    0.57852    0.94420    1.000
    Si1638   Si       0.25201    0.55824    0.90714    1.000
    Si1639   Si       0.26402    0.56814    0.98278    1.000
    Si1640   Si       0.24495    0.62313    0.96161    1.000
    Si1641   Si       0.25966    0.63242    0.88784    1.000
    Si1642   Si       0.24029    0.68498    0.93810    1.000
    N1643    N        0.26482    0.67210    0.97197    1.000
    N1644    N        0.23335    0.64273    0.92142    1.000
    N1645    N        0.27086    0.69301    0.90848    1.000
    N1646    N        0.26267    0.82704    0.01319    1.000
    N1647    N        0.24050    0.86485    0.07605    1.000
    Si1648   Si       0.22563    0.84152    0.04278    1.000
    N1649    N        0.26079    0.76285    0.03439    1.000
    Si1650   Si       0.22127    0.85006    0.11579    1.000
    Si1651   Si       0.27081    0.99319    0.03055    1.000
    Si1652   Si       0.25849    0.90563    0.07434    1.000
    N1653    N        0.25083    0.93391    0.10677    1.000
    N1654    N        0.23689    0.98871    0.05678    1.000
    N1655    N        0.23043    0.92664    0.04544    1.000
    Si1656   Si       0.24754    0.92772    0.00604    1.000
    N1657    N        0.27166    0.96266    0.00139    1.000
    N1658    N        0.25409    0.82069    0.12472    1.000
    Si1659   Si       0.25457    0.77616    0.12485    1.000
    N1660    N        0.25376    0.76852    0.16925    1.000
    Si1661   Si       0.27312    0.84919    0.21121    1.000
    N1662    N        0.24279    0.87948    0.20388    1.000
    N1663    N        0.25901    0.82020    0.24149    1.000
    N1664    N        0.28052    0.88478    0.14909    1.000
    N1665    N        0.25781    0.93937    0.17230    1.000
    Si1666   Si       0.25401    0.95001    0.21588    1.000
    Si1667   Si       0.24190    0.89834    0.16428    1.000
    Si1668   Si       0.26150    0.96591    0.13863    1.000
    N1669    N        0.25235    0.99298    0.22176    1.000
    N1670    N        0.27931    0.93233    0.24395    1.000
    N1671    N        0.25762    0.85411    0.34156    1.000
    N1672    N        0.26178    0.77919    0.35200    1.000
    N1673    N        0.27479    0.75841    0.27874    1.000
    Si1674   Si       0.25404    0.89260    0.36060    1.000
    N1675    N        0.25686    0.98120    0.29583    1.000
    Si1676   Si       0.23413    0.96130    0.32919    1.000
    N1677    N        0.23509    0.91803    0.32858    1.000
    Si1678   Si       0.24030    0.00332    0.26370    1.000
    N1679    N        0.25744    0.97012    0.36536    1.000
    N1680    N        0.24363    0.81256    0.41673    1.000
    N1681    N        0.27615    0.86605    0.44013    1.000
    Si1682   Si       0.23367    0.85569    0.42634    1.000
    Si1683   Si       0.27315    0.80064    0.38721    1.000
    Si1684   Si       0.22823    0.77604    0.43609    1.000
    Si1685   Si       0.28554    0.86389    0.48221    1.000
    N1686    N        0.22567    0.88179    0.39383    1.000
    N1687    N        0.25224    0.99551    0.48180    1.000
    Si1688   Si       0.23715    0.00118    0.38959    1.000
    Si1689   Si       0.24019    0.96149    0.45808    1.000
    N1690    N        0.27581    0.94541    0.43551    1.000
    N1691    N        0.24921    0.78151    0.60251    1.000
    Si1692   Si       0.25895    0.81268    0.53781    1.000
    N1693    N        0.24534    0.83901    0.57430    1.000
    N1694    N        0.23509    0.77892    0.52075    1.000
    N1695    N        0.25398    0.83914    0.50233    1.000
    Si1696   Si       0.27873    0.86198    0.59480    1.000
    Si1697   Si       0.25892    0.97345    0.57469    1.000
    N1698    N        0.25338    0.93658    0.55088    1.000
    N1699    N        0.26989    0.89983    0.61805    1.000
    N1700    N        0.27292    0.00550    0.54893    1.000
    N1701    N        0.28735    0.90484    0.49529    1.000
    Si1702   Si       0.26361    0.76925    0.69648    1.000
    N1703    N        0.25174    0.85934    0.70958    1.000
    N1704    N        0.23248    0.83737    0.64272    1.000
    Si1705   Si       0.22934    0.85848    0.74875    1.000
    N1706    N        0.23157    0.99268    0.70090    1.000
    Si1707   Si       0.22743    0.90815    0.63134    1.000
    Si1708   Si       0.24109    0.80234    0.79490    1.000
    N1709    N        0.23958    0.83704    0.82542    1.000
    Si1710   Si       0.26754    0.87097    0.81714    1.000
    N1711    N        0.28297    0.79801    0.78653    1.000
    N1712    N        0.25035    0.88447    0.77898    1.000
    Si1713   Si       0.25677    0.93790    0.83417    1.000
    Si1714   Si       0.26371    0.92309    0.76274    1.000
    N1715    N        0.26619    0.89916    0.84997    1.000
    N1716    N        0.25879    0.96810    0.86629    1.000
    N1717    N        0.27801    0.94626    0.79719    1.000
    N1718    N        0.22389    0.94145    0.75119    1.000
    Si1719   Si       0.24294    0.85537    0.98514    1.000
    Si1720   Si       0.24400    0.85801    0.90821    1.000
    N1721    N        0.26377    0.82164    0.89536    1.000
    Si1722   Si       0.25891    0.78556    0.91759    1.000
    N1723    N        0.27812    0.78611    0.95720    1.000
    N1724    N        0.22725    0.83874    0.94663    1.000
    Si1725   Si       0.25552    0.78477    0.99518    1.000
    N1726    N        0.22371    0.00342    0.91047    1.000
    Si1727   Si       0.24808    0.00316    0.94739    1.000
    N1728    N        0.27513    0.88630    0.91849    1.000
    N1729    N        0.26475    0.89271    0.98672    1.000
    N1730    N        0.27440    0.97156    0.93482    1.000
    N1731    N        0.31755    0.11024    0.10661    1.000
    N1732    N        0.32183    0.05329    0.06749    1.000
    Si1733   Si       0.32694    0.06443    0.10863    1.000
    Si1734   Si       0.29969    0.12468    0.06760    1.000
    Si1735   Si       0.29553    0.06327    0.03551    1.000
    N1736    N        0.33214    0.13206    0.04094    1.000
    Si1737   Si       0.34097    0.01250    0.06808    1.000
    N1738    N        0.33973    0.01835    0.11652    1.000
    Si1739   Si       0.34195    0.11266    0.99929    1.000
    N1740    N        0.31768    0.07691    0.99930    1.000
    N1741    N        0.29401    0.22556    0.09303    1.000
    Si1742   Si       0.33495    0.21108    0.09155    1.000
    N1743    N        0.30997    0.06670    0.15047    1.000
    Si1744   Si       0.31930    0.05831    0.19317    1.000
    N1745    N        0.33554    0.01915    0.18657    1.000
    Si1746   Si       0.29030    0.10828    0.14140    1.000
    N1747    N        0.33636    0.09418    0.21228    1.000
    Si1748   Si       0.34146    0.13357    0.19309    1.000
    N1749    N        0.29808    0.13561    0.17319    1.000
    Si1750   Si       0.32129    0.19295    0.22139    1.000
    N1751    N        0.31529    0.25625    0.15261    1.000
    N1752    N        0.29271    0.20273    0.19214    1.000
    N1753    N        0.32823    0.23248    0.24818    1.000
    N1754    N        0.32184    0.05557    0.27250    1.000
    N1755    N        0.30659    0.01896    0.32469    1.000
    N1756    N        0.33272    0.08577    0.33772    1.000
    Si1757   Si       0.29581    0.09972    0.35286    1.000
    Si1758   Si       0.32174    0.09455    0.25477    1.000
    Si1759   Si       0.28671    0.04733    0.29974    1.000
    Si1760   Si       0.33815    0.04401    0.34244    1.000
    N1761    N        0.29414    0.14331    0.35689    1.000
    Si1762   Si       0.31945    0.24604    0.33619    1.000
    Si1763   Si       0.31982    0.20348    0.28212    1.000
    N1764    N        0.29478    0.21886    0.31303    1.000
    N1765    N        0.30189    0.17378    0.25617    1.000
    Si1766   Si       0.31387    0.01246    0.40567    1.000
    Si1767   Si       0.29999    0.11605    0.42068    1.000
    N1768    N        0.30839    0.10029    0.45865    1.000
    N1769    N        0.31027    0.01758    0.45018    1.000
    N1770    N        0.33843    0.12480    0.40229    1.000
    N1771    N        0.30402    0.19453    0.48263    1.000
    Si1772   Si       0.34047    0.23825    0.40426    1.000
    N1773    N        0.30694    0.25042    0.37778    1.000
    Si1774   Si       0.33342    0.15791    0.37438    1.000
    N1775    N        0.33213    0.24627    0.44752    1.000
    Si1776   Si       0.31452    0.07714    0.59792    1.000
    N1777    N        0.32946    0.12262    0.52253    1.000
    N1778    N        0.33114    0.04270    0.57376    1.000
    Si1779   Si       0.30823    0.02750    0.54090    1.000
    N1780    N        0.28735    0.04830    0.50665    1.000
    Si1781   Si       0.28874    0.12433    0.53773    1.000
    N1782    N        0.28445    0.09864    0.57494    1.000
    N1783    N        0.31526    0.23230    0.54087    1.000
    N1784    N        0.30629    0.16015    0.61276    1.000
    Si1785   Si       0.28930    0.20173    0.52279    1.000
    Si1786   Si       0.31813    0.04634    0.66937    1.000
    N1787    N        0.29641    0.02206    0.69834    1.000
    N1788    N        0.29579    0.06607    0.63790    1.000
    Si1789   Si       0.32562    0.01347    0.73125    1.000
    N1790    N        0.33683    0.07709    0.69304    1.000
    N1791    N        0.33149    0.01358    0.64226    1.000
    N1792    N        0.32952    0.25876    0.63117    1.000
    N1793    N        0.32901    0.20388    0.67071    1.000
    Si1794   Si       0.32532    0.19252    0.71396    1.000
    Si1795   Si       0.30653    0.23908    0.66023    1.000
    N1796    N        0.32710    0.14803    0.70593    1.000
    Si1797   Si       0.29668    0.18130    0.64940    1.000
    N1798    N        0.28475    0.18286    0.72812    1.000
    Si1799   Si       0.28334    0.14487    0.70905    1.000
    N1800    N        0.31930    0.04189    0.76268    1.000
    Si1801   Si       0.32623    0.10484    0.84343    1.000
    N1802    N        0.28810    0.12740    0.85154    1.000
    N1803    N        0.34155    0.07061    0.82002    1.000
    N1804    N        0.30462    0.20241    0.79717    1.000
    Si1805   Si       0.31137    0.24565    0.80009    1.000
    Si1806   Si       0.33810    0.18102    0.81341    1.000
    N1807    N        0.33618    0.19100    0.85323    1.000
    Si1808   Si       0.31080    0.04510    0.96994    1.000
    Si1809   Si       0.32876    0.09547    0.92549    1.000
    N1810    N        0.33420    0.05435    0.93425    1.000
    Si1811   Si       0.33766    0.02237    0.90565    1.000
    N1812    N        0.30206    0.01078    0.88206    1.000
    Si1813   Si       0.28460    0.24392    0.92625    1.000
    N1814    N        0.31898    0.23172    0.90224    1.000
    N1815    N        0.30454    0.16731    0.91402    1.000
    N1816    N        0.29004    0.15431    0.98739    1.000
    Si1817   Si       0.30420    0.18082    0.95671    1.000
    N1818    N        0.28467    0.21926    0.96267    1.000
    Si1819   Si       0.33469    0.19303    0.89479    1.000
    N1820    N        0.30369    0.27181    0.00930    1.000
    N1821    N        0.32956    0.32816    0.04916    1.000
    Si1822   Si       0.29550    0.32569    0.10759    1.000
    Si1823   Si       0.32799    0.37075    0.04573    1.000
    Si1824   Si       0.29742    0.30166    0.04013    1.000
    N1825    N        0.29101    0.28974    0.08280    1.000
    N1826    N        0.33677    0.32730    0.12045    1.000
    N1827    N        0.29188    0.38867    0.03164    1.000
    N1828    N        0.32894    0.39082    0.08590    1.000
    N1829    N        0.32895    0.44325    0.02662    1.000
    Si1830   Si       0.28786    0.40029    0.09297    1.000
    Si1831   Si       0.28547    0.44342    0.03271    1.000
    Si1832   Si       0.33890    0.41469    0.99659    1.000
    N1833    N        0.32429    0.30264    0.23482    1.000
    N1834    N        0.29477    0.49074    0.12328    1.000
    Si1835   Si       0.30883    0.45336    0.14014    1.000
    N1836    N        0.29690    0.46543    0.18028    1.000
    N1837    N        0.28220    0.41891    0.13187    1.000
    Si1838   Si       0.30595    0.43733    0.21234    1.000
    N1839    N        0.32382    0.28818    0.32121    1.000
    N1840    N        0.33045    0.36643    0.25037    1.000
    Si1841   Si       0.29883    0.33595    0.24860    1.000
    Si1842   Si       0.33053    0.38004    0.29105    1.000
    N1843    N        0.28415    0.34436    0.29223    1.000
    Si1844   Si       0.28550    0.30421    0.31089    1.000
    Si1845   Si       0.30153    0.26704    0.24323    1.000
    N1846    N        0.31228    0.45877    0.25114    1.000
    N1847    N        0.32178    0.46282    0.32735    1.000
    Si1848   Si       0.29943    0.44952    0.29292    1.000
    N1849    N        0.29764    0.40621    0.29852    1.000
    Si1850   Si       0.31680    0.50131    0.34567    1.000
    N1851    N        0.31248    0.40254    0.36546    1.000
    Si1852   Si       0.33939    0.42679    0.34174    1.000
    N1853    N        0.33807    0.31407    0.38355    1.000
    Si1854   Si       0.30074    0.29461    0.38599    1.000
    Si1855   Si       0.33246    0.35346    0.48417    1.000
    Si1856   Si       0.33577    0.27990    0.47560    1.000
    N1857    N        0.29394    0.27862    0.48844    1.000
    N1858    N        0.28625    0.35113    0.48084    1.000
    N1859    N        0.28617    0.29762    0.42596    1.000
    Si1860   Si       0.28942    0.45867    0.40501    1.000
    N1861    N        0.32306    0.43687    0.42077    1.000
    Si1862   Si       0.30416    0.40385    0.44523    1.000
    N1863    N        0.31954    0.48199    0.49249    1.000
    N1864    N        0.30825    0.49425    0.38820    1.000
    N1865    N        0.30768    0.31792    0.53985    1.000
    Si1866   Si       0.33195    0.34917    0.55856    1.000
    Si1867   Si       0.31032    0.27517    0.55288    1.000
    N1868    N        0.31084    0.37605    0.58319    1.000
    N1869    N        0.33917    0.37265    0.52228    1.000
    Si1870   Si       0.30165    0.29177    0.61828    1.000
    Si1871   Si       0.30323    0.41844    0.57601    1.000
    N1872    N        0.30712    0.44592    0.60908    1.000
    N1873    N        0.33282    0.43508    0.54888    1.000
    Si1874   Si       0.29012    0.48536    0.60720    1.000
    N1875    N        0.32908    0.32429    0.62140    1.000
    Si1876   Si       0.31487    0.36636    0.62648    1.000
    Si1877   Si       0.31902    0.26780    0.73115    1.000
    N1878    N        0.29823    0.36461    0.71868    1.000
    N1879    N        0.29299    0.26282    0.69505    1.000
    N1880    N        0.33979    0.30555    0.73017    1.000
    Si1881   Si       0.33931    0.34605    0.71870    1.000
    N1882    N        0.34192    0.39724    0.63885    1.000
    N1883    N        0.31330    0.49689    0.71567    1.000
    N1884    N        0.29839    0.43030    0.67961    1.000
    Si1885   Si       0.32640    0.43624    0.64680    1.000
    Si1886   Si       0.29179    0.45794    0.71291    1.000
    Si1887   Si       0.33166    0.33160    0.84686    1.000
    N1888    N        0.29378    0.27101    0.76904    1.000
    N1889    N        0.29110    0.33270    0.83008    1.000
    N1890    N        0.30001    0.26068    0.83869    1.000
    N1891    N        0.31243    0.38271    0.78860    1.000
    Si1892   Si       0.33010    0.26161    0.87150    1.000
    Si1893   Si       0.30812    0.46048    0.78452    1.000
    Si1894   Si       0.32516    0.45113    0.86336    1.000
    N1895    N        0.31854    0.44041    0.82127    1.000
    N1896    N        0.33785    0.49784    0.85335    1.000
    N1897    N        0.30334    0.43620    0.74940    1.000
    Si1898   Si       0.33925    0.40272    0.81378    1.000
    Si1899   Si       0.31408    0.39500    0.74635    1.000
    N1900    N        0.28962    0.28386    0.93904    1.000
    Si1901   Si       0.31671    0.29081    0.97202    1.000
    N1902    N        0.32368    0.30478    0.88144    1.000
    Si1903   Si       0.32936    0.36545    0.93911    1.000
    N1904    N        0.29370    0.35410    0.91907    1.000
    Si1905   Si       0.28905    0.31319    0.90784    1.000
    N1906    N        0.33715    0.32964    0.96018    1.000
    N1907    N        0.31520    0.40083    0.96314    1.000
    N1908    N        0.29081    0.46959    0.88266    1.000
    N1909    N        0.28620    0.48275    0.95141    1.000
    N1910    N        0.30849    0.40603    0.87720    1.000
    N1911    N        0.30624    0.54949    0.05040    1.000
    Si1912   Si       0.30477    0.58358    0.07882    1.000
    N1913    N        0.31602    0.56654    0.11543    1.000
    N1914    N        0.33568    0.61372    0.06872    1.000
    N1915    N        0.31196    0.67797    0.10093    1.000
    N1916    N        0.31194    0.72642    0.05104    1.000
    Si1917   Si       0.32325    0.65486    0.06583    1.000
    N1918    N        0.29540    0.65515    0.03349    1.000
    Si1919   Si       0.28682    0.70958    0.08511    1.000
    N1920    N        0.28324    0.74508    0.11045    1.000
    Si1921   Si       0.32415    0.52526    0.12709    1.000
    Si1922   Si       0.29319    0.58035    0.14893    1.000
    N1923    N        0.30493    0.53844    0.16652    1.000
    N1924    N        0.32284    0.54994    0.22563    1.000
    N1925    N        0.28966    0.62292    0.13236    1.000
    N1926    N        0.28916    0.59561    0.19103    1.000
    Si1927   Si       0.30106    0.63361    0.20501    1.000
    Si1928   Si       0.29425    0.70515    0.20798    1.000
    N1929    N        0.31358    0.68993    0.24352    1.000
    N1930    N        0.29907    0.67063    0.18036    1.000
    N1931    N        0.30984    0.74684    0.20117    1.000
    Si1932   Si       0.31182    0.65927    0.14006    1.000
    Si1933   Si       0.31704    0.59858    0.31948    1.000
    N1934    N        0.31875    0.57364    0.35850    1.000
    N1935    N        0.33340    0.59454    0.27893    1.000
    Si1936   Si       0.32904    0.67292    0.33505    1.000
    N1937    N        0.29211    0.66912    0.31226    1.000
    N1938    N        0.33024    0.76176    0.32832    1.000
    N1939    N        0.28399    0.60207    0.48523    1.000
    N1940    N        0.31320    0.54359    0.45155    1.000
    Si1941   Si       0.29328    0.51870    0.42058    1.000
    Si1942   Si       0.28671    0.55888    0.48099    1.000
    N1943    N        0.29479    0.64101    0.43152    1.000
    N1944    N        0.33086    0.72573    0.43646    1.000
    N1945    N        0.33453    0.65465    0.48476    1.000
    Si1946   Si       0.33656    0.63880    0.44560    1.000
    Si1947   Si       0.28810    0.66570    0.39671    1.000
    N1948    N        0.32196    0.68233    0.37722    1.000
    Si1949   Si       0.28936    0.73643    0.43302    1.000
    N1950    N        0.30608    0.54536    0.51998    1.000
    N1951    N        0.32226    0.61628    0.54303    1.000
    Si1952   Si       0.32281    0.57422    0.55319    1.000
    N1953    N        0.29153    0.55684    0.57888    1.000
    Si1954   Si       0.29554    0.55014    0.62125    1.000
    Si1955   Si       0.33991    0.52124    0.50218    1.000
    Si1956   Si       0.30265    0.63525    0.50895    1.000
    N1957    N        0.32072    0.69191    0.57449    1.000
    N1958    N        0.28887    0.73349    0.52262    1.000
    Si1959   Si       0.28640    0.70191    0.55105    1.000
    Si1960   Si       0.33983    0.65081    0.56609    1.000
    Si1961   Si       0.34095    0.72979    0.58417    1.000
    N1962    N        0.31687    0.51397    0.62474    1.000
    N1963    N        0.29760    0.56556    0.69767    1.000
    Si1964   Si       0.33578    0.56737    0.67650    1.000
    N1965    N        0.32121    0.57994    0.63708    1.000
    Si1966   Si       0.31525    0.62219    0.63154    1.000
    Si1967   Si       0.28963    0.53086    0.72676    1.000
    N1968    N        0.28629    0.67387    0.72531    1.000
    Si1969   Si       0.30015    0.67386    0.68437    1.000
    N1970    N        0.31448    0.63471    0.67456    1.000
    N1971    N        0.32978    0.59340    0.85182    1.000
    N1972    N        0.31784    0.61716    0.75927    1.000
    Si1973   Si       0.28904    0.58173    0.84321    1.000
    N1974    N        0.29180    0.54747    0.76493    1.000
    Si1975   Si       0.29977    0.51094    0.86955    1.000
    N1976    N        0.28610    0.53802    0.83787    1.000
    Si1977   Si       0.30549    0.65886    0.76266    1.000
    Si1978   Si       0.30268    0.75115    0.85908    1.000
    N1979    N        0.32709    0.75257    0.79209    1.000
    N1980    N        0.33204    0.71837    0.85369    1.000
    N1981    N        0.33865    0.68260    0.78324    1.000
    N1982    N        0.29883    0.54509    0.97487    1.000
    Si1983   Si       0.30529    0.51957    0.94135    1.000
    N1984    N        0.28633    0.53282    0.90433    1.000
    Si1985   Si       0.33878    0.62318    0.88303    1.000
    Si1986   Si       0.34185    0.54252    0.98326    1.000
    N1987    N        0.32276    0.64376    0.95751    1.000
    N1988    N        0.33589    0.69600    0.99309    1.000
    Si1989   Si       0.30430    0.66480    0.99164    1.000
    N1990    N        0.30078    0.64013    0.89706    1.000
    Si1991   Si       0.30680    0.67257    0.92425    1.000
    N1992    N        0.32224    0.79268    0.01380    1.000
    N1993    N        0.32069    0.78730    0.07774    1.000
    N1994    N        0.32674    0.85359    0.03952    1.000
    N1995    N        0.32442    0.84784    0.11120    1.000
    Si1996   Si       0.33253    0.82706    0.07144    1.000
    Si1997   Si       0.30336    0.76702    0.04423    1.000
    Si1998   Si       0.30679    0.83207    0.00822    1.000
    Si1999   Si       0.32380    0.76136    0.11121    1.000
    N2000    N        0.30739    0.98956    0.05318    1.000
    N2001    N        0.29918    0.91882    0.06172    1.000
    Si2002   Si       0.32889    0.94835    0.05087    1.000
    N2003    N        0.32417    0.78469    0.14727    1.000
    N2004    N        0.30855    0.86591    0.22950    1.000
    Si2005   Si       0.29346    0.78248    0.17995    1.000
    N2006    N        0.32545    0.79691    0.23753    1.000
    Si2007   Si       0.29023    0.84370    0.13769    1.000
    N2008    N        0.28950    0.82718    0.17909    1.000
    Si2009   Si       0.34031    0.83642    0.22673    1.000
    Si2010   Si       0.30333    0.92336    0.15510    1.000
    N2011    N        0.32364    0.92343    0.19401    1.000
    N2012    N        0.30698    0.96622    0.13914    1.000
    Si2013   Si       0.31273    0.90688    0.23435    1.000
    N2014    N        0.33784    0.91580    0.12838    1.000
    Si2015   Si       0.31199    0.00849    0.15081    1.000
    Si2016   Si       0.29820    0.84194    0.33792    1.000
    N2017    N        0.32998    0.87131    0.32522    1.000
    N2018    N        0.29774    0.81400    0.30450    1.000
    Si2019   Si       0.28758    0.79695    0.26324    1.000
    Si2020   Si       0.28804    0.77216    0.31801    1.000
    Si2021   Si       0.32437    0.91096    0.34351    1.000
    N2022    N        0.31399    0.94200    0.31403    1.000
    Si2023   Si       0.30082    0.98031    0.30423    1.000
    N2024    N        0.33474    0.98750    0.27515    1.000
    N2025    N        0.30701    0.83223    0.38054    1.000
    Si2026   Si       0.31387    0.86072    0.41772    1.000
    N2027    N        0.29694    0.77412    0.41075    1.000
    Si2028   Si       0.33121    0.79849    0.40544    1.000
    N2029    N        0.33756    0.82653    0.43601    1.000
    N2030    N        0.33736    0.77939    0.48567    1.000
    N2031    N        0.33017    0.89797    0.43494    1.000
    N2032    N        0.29016    0.91053    0.37140    1.000
    Si2033   Si       0.30101    0.92243    0.45859    1.000
    Si2034   Si       0.28450    0.94845    0.39183    1.000
    N2035    N        0.33561    0.94752    0.47603    1.000
    N2036    N        0.32128    0.97145    0.39585    1.000
    N2037    N        0.30184    0.80189    0.54589    1.000
    Si2038   Si       0.32018    0.84238    0.53991    1.000
    N2039    N        0.30023    0.87737    0.55845    1.000
    Si2040   Si       0.31860    0.76619    0.52312    1.000
    N2041    N        0.30094    0.83219    0.61505    1.000
    Si2042   Si       0.33864    0.79383    0.57534    1.000
    N2043    N        0.31314    0.76190    0.59774    1.000
    Si2044   Si       0.28876    0.78906    0.62144    1.000
    N2045    N        0.32273    0.84896    0.49819    1.000
    N2046    N        0.32118    0.94383    0.54779    1.000
    Si2047   Si       0.33015    0.95305    0.58769    1.000
    N2048    N        0.29258    0.96858    0.60241    1.000
    Si2049   Si       0.28994    0.91500    0.53673    1.000
    Si2050   Si       0.34201    0.96310    0.51545    1.000
    N2051    N        0.33880    0.92257    0.61991    1.000
    N2052    N        0.34350    0.82270    0.67508    1.000
    Si2053   Si       0.29225    0.87692    0.70887    1.000
    Si2054   Si       0.32964    0.84924    0.64254    1.000
    N2055    N        0.29902    0.77786    0.72323    1.000
    Si2056   Si       0.32503    0.78615    0.68841    1.000
    N2057    N        0.32319    0.85417    0.73087    1.000
    N2058    N        0.30907    0.87902    0.66922    1.000
    N2059    N        0.28962    0.78169    0.66302    1.000
    Si2060   Si       0.30949    0.94867    0.71049    1.000
    Si2061   Si       0.29597    0.98664    0.64251    1.000
    Si2062   Si       0.30215    0.91407    0.64346    1.000
    N2063    N        0.28924    0.91523    0.72994    1.000
    N2064    N        0.29461    0.95076    0.66846    1.000
    N2065    N        0.31220    0.97659    0.74864    1.000
    N2066    N        0.31065    0.86757    0.80827    1.000
    N2067    N        0.31225    0.79275    0.84894    1.000
    Si2068   Si       0.32214    0.79576    0.80697    1.000
    Si2069   Si       0.33591    0.86072    0.77216    1.000
    Si2070   Si       0.29269    0.76133    0.76245    1.000
    Si2071   Si       0.30554    0.97734    0.79132    1.000
    N2072    N        0.33815    0.97117    0.81973    1.000
    N2073    N        0.29233    0.76287    0.90058    1.000
    N2074    N        0.31685    0.86248    0.87422    1.000
    Si2075   Si       0.30486    0.82080    0.88161    1.000
    N2076    N        0.31646    0.85138    0.96907    1.000
    Si2077   Si       0.31746    0.77808    0.93593    1.000
    N2078    N        0.33646    0.80967    0.91085    1.000
    N2079    N        0.32059    0.92457    0.96132    1.000
    N2080    N        0.31618    0.93628    0.88006    1.000
    Si2081   Si       0.29467    0.97102    0.89598    1.000
    Si2082   Si       0.29763    0.88823    0.95504    1.000
    Si2083   Si       0.29459    0.89823    0.88149    1.000
    Si2084   Si       0.30280    0.96537    0.96943    1.000
    N2085    N        0.32284    0.00436    0.97931    1.000
    N2086    N        0.38383    0.10076    0.01059    1.000
    N2087    N        0.36787    0.02416    0.03398    1.000
    N2088    N        0.38870    0.12706    0.08325    1.000
    N2089    N        0.37101    0.07248    0.11268    1.000
    Si2090   Si       0.39374    0.05868    0.01890    1.000
    Si2091   Si       0.35700    0.12371    0.11473    1.000
    Si2092   Si       0.36178    0.15839    0.06111    1.000
    Si2093   Si       0.38705    0.20753    0.03090    1.000
    N2094    N        0.36381    0.23504    0.11187    1.000
    N2095    N        0.34809    0.17090    0.10275    1.000
    N2096    N        0.34998    0.20373    0.05261    1.000
    N2097    N        0.39158    0.16506    0.02874    1.000
    Si2098   Si       0.39923    0.24977    0.09077    1.000
    Si2099   Si       0.38169    0.03344    0.12863    1.000
    N2100    N        0.38173    0.03027    0.24196    1.000
    N2101    N        0.39770    0.02923    0.16888    1.000
    Si2102   Si       0.37542    0.01203    0.20182    1.000
    Si2103   Si       0.35777    0.24373    0.15434    1.000
    Si2104   Si       0.39045    0.19280    0.20536    1.000
    N2105    N        0.35670    0.16678    0.22053    1.000
    N2106    N        0.36921    0.20591    0.17043    1.000
    N2107    N        0.39510    0.23175    0.22585    1.000
    Si2108   Si       0.37561    0.17559    0.13947    1.000
    N2109    N        0.36423    0.13654    0.15597    1.000
    Si2110   Si       0.35849    0.11663    0.31806    1.000
    N2111    N        0.37060    0.03182    0.31544    1.000
    Si2112   Si       0.35465    0.02579    0.27582    1.000
    N2113    N        0.39809    0.09805    0.31907    1.000
    N2114    N        0.34601    0.12321    0.27749    1.000
    Si2115   Si       0.36672    0.15673    0.26140    1.000
    N2116    N        0.36196    0.19492    0.28218    1.000
    N2117    N        0.36056    0.23189    0.33724    1.000
    Si2118   Si       0.37572    0.19303    0.32518    1.000
    N2119    N        0.36066    0.15543    0.33989    1.000
    Si2120   Si       0.37194    0.23377    0.26180    1.000
    Si2121   Si       0.38175    0.03528    0.40298    1.000
    Si2122   Si       0.37399    0.11382    0.42507    1.000
    N2123    N        0.38338    0.07133    0.42655    1.000
    N2124    N        0.37044    0.12553    0.46910    1.000
    N2125    N        0.37907    0.01468    0.44879    1.000
    N2126    N        0.35870    0.06123    0.49213    1.000
    Si2127   Si       0.34264    0.02256    0.47521    1.000
    N2128    N        0.34267    0.03464    0.38408    1.000
    Si2129   Si       0.34086    0.10049    0.48689    1.000
    N2130    N        0.38161    0.19765    0.45619    1.000
    Si2131   Si       0.38362    0.18367    0.41501    1.000
    N2132    N        0.34497    0.19483    0.39749    1.000
    Si2133   Si       0.34560    0.21322    0.47789    1.000
    Si2134   Si       0.38789    0.08001    0.59204    1.000
    Si2135   Si       0.36960    0.03987    0.52843    1.000
    Si2136   Si       0.35555    0.02099    0.60618    1.000
    N2137    N        0.39120    0.07048    0.55043    1.000
    N2138    N        0.35040    0.09787    0.60895    1.000
    N2139    N        0.39240    0.04396    0.61687    1.000
    N2140    N        0.34085    0.00736    0.51708    1.000
    N2141    N        0.36923    0.15068    0.57509    1.000
    N2142    N        0.37614    0.21925    0.57944    1.000
    N2143    N        0.36500    0.19314    0.51607    1.000
    Si2144   Si       0.35908    0.23333    0.53996    1.000
    Si2145   Si       0.34699    0.14203    0.61073    1.000
    Si2146   Si       0.36402    0.25271    0.60525    1.000
    N2147    N        0.36475    0.25571    0.50068    1.000
    Si2148   Si       0.36150    0.15158    0.53137    1.000
    N2149    N        0.39154    0.12021    0.70078    1.000
    Si2150   Si       0.35025    0.11161    0.71484    1.000
    Si2151   Si       0.39518    0.03132    0.72913    1.000
    N2152    N        0.40419    0.04789    0.69095    1.000
    Si2153   Si       0.39959    0.15428    0.67476    1.000
    N2154    N        0.39329    0.19318    0.69341    1.000
    Si2155   Si       0.37088    0.20265    0.65824    1.000
    N2156    N        0.37277    0.16209    0.64032    1.000
    N2157    N        0.39421    0.23078    0.63655    1.000
    N2158    N        0.34074    0.22920    0.73266    1.000
    Si2159   Si       0.37555    0.05124    0.84426    1.000
    N2160    N        0.38752    0.05785    0.76148    1.000
    N2161    N        0.39516    0.01880    0.82425    1.000
    Si2162   Si       0.34844    0.07090    0.77629    1.000
    N2163    N        0.34860    0.11027    0.75870    1.000
    N2164    N        0.40250    0.08389    0.85056    1.000
    Si2165   Si       0.37282    0.13598    0.78563    1.000
    N2166    N        0.36971    0.18027    0.77950    1.000
    Si2167   Si       0.37048    0.22081    0.76371    1.000
    N2168    N        0.35475    0.24646    0.79492    1.000
    N2169    N        0.34686    0.13616    0.81987    1.000
    Si2170   Si       0.38750    0.11530    0.87818    1.000
    N2171    N        0.37270    0.02925    0.88102    1.000
    N2172    N        0.34534    0.10391    0.88533    1.000
    N2173    N        0.34495    0.12285    0.95733    1.000
    Si2174   Si       0.36908    0.23034    0.95886    1.000
    N2175    N        0.34648    0.19334    0.96103    1.000
    Si2176   Si       0.37119    0.15741    0.94686    1.000
    N2177    N        0.37601    0.17609    0.90739    1.000
    N2178    N        0.40288    0.23741    0.92975    1.000
    N2179    N        0.39631    0.22667    0.99326    1.000
    N2180    N        0.38068    0.28244    0.06823    1.000
    Si2181   Si       0.35778    0.31786    0.08191    1.000
    N2182    N        0.39216    0.34214    0.07042    1.000
    N2183    N        0.39176    0.32323    0.00235    1.000
    Si2184   Si       0.39970    0.36731    0.00479    1.000
    N2185    N        0.35810    0.38272    0.01680    1.000
    Si2186   Si       0.36058    0.40806    0.11043    1.000
    Si2187   Si       0.36795    0.48544    0.11334    1.000
    Si2188   Si       0.35947    0.47290    0.01376    1.000
    N2189    N        0.39351    0.41407    0.08136    1.000
    N2190    N        0.39765    0.46785    0.03423    1.000
    Si2191   Si       0.36067    0.30135    0.20856    1.000
    Si2192   Si       0.36515    0.34414    0.14739    1.000
    N2193    N        0.37546    0.27563    0.17666    1.000
    N2194    N        0.35818    0.34161    0.19026    1.000
    Si2195   Si       0.35573    0.37603    0.21755    1.000
    N2196    N        0.39738    0.30039    0.23420    1.000
    N2197    N        0.38370    0.38423    0.13958    1.000
    N2198    N        0.34320    0.41790    0.20589    1.000
    N2199    N        0.35836    0.49635    0.20957    1.000
    Si2200   Si       0.38671    0.48357    0.18066    1.000
    Si2201   Si       0.37948    0.43222    0.22188    1.000
    N2202    N        0.39368    0.39320    0.23341    1.000
    N2203    N        0.35002    0.44754    0.12234    1.000
    N2204    N        0.36141    0.50622    0.15015    1.000
    N2205    N        0.38486    0.29994    0.34689    1.000
    Si2206   Si       0.38826    0.37521    0.31794    1.000
    N2207    N        0.34905    0.35350    0.32034    1.000
    Si2208   Si       0.39315    0.25904    0.33188    1.000
    Si2209   Si       0.34634    0.31856    0.34168    1.000
    N2210    N        0.36066    0.41166    0.30622    1.000
    N2211    N        0.38271    0.45705    0.25674    1.000
    Si2212   Si       0.39288    0.44118    0.29438    1.000
    Si2213   Si       0.35151    0.48603    0.24983    1.000
    N2214    N        0.37402    0.43572    0.36723    1.000
    N2215    N        0.39445    0.47472    0.32083    1.000
    Si2216   Si       0.39667    0.32987    0.45693    1.000
    Si2217   Si       0.37672    0.30126    0.39282    1.000
    N2218    N        0.35521    0.31893    0.47195    1.000
    N2219    N        0.37858    0.26037    0.40273    1.000
    N2220    N        0.40055    0.32962    0.41337    1.000
    Si2221   Si       0.38607    0.40362    0.46484    1.000
    N2222    N        0.39042    0.41289    0.42356    1.000
    N2223    N        0.34303    0.38413    0.45529    1.000
    N2224    N        0.38114    0.48129    0.40944    1.000
    Si2225   Si       0.36294    0.44072    0.41045    1.000
    N2226    N        0.37202    0.34094    0.56872    1.000
    Si2227   Si       0.39198    0.30243    0.57239    1.000
    N2228    N        0.35344    0.27381    0.56667    1.000
    N2229    N        0.38959    0.29025    0.61489    1.000
    Si2230   Si       0.40547    0.27204    0.49844    1.000
    Si2231   Si       0.36168    0.40693    0.53147    1.000
    N2232    N        0.36182    0.50162    0.53676    1.000
    Si2233   Si       0.34715    0.46445    0.52065    1.000
    N2234    N        0.39478    0.40306    0.55836    1.000
    N2235    N        0.38643    0.50574    0.60674    1.000
    N2236    N        0.36689    0.43188    0.49587    1.000
    N2237    N        0.35322    0.34590    0.67700    1.000
    Si2238   Si       0.37136    0.32056    0.64075    1.000
    N2239    N        0.39495    0.36026    0.62798    1.000
    N2240    N        0.35500    0.38369    0.73741    1.000
    N2241    N        0.39960    0.30492    0.67340    1.000
    Si2242   Si       0.37502    0.37984    0.66024    1.000
    Si2243   Si       0.35751    0.50753    0.63855    1.000
    N2244    N        0.38659    0.46506    0.72496    1.000
    Si2245   Si       0.35373    0.49372    0.73490    1.000
    Si2246   Si       0.38974    0.45224    0.68194    1.000
    N2247    N        0.35496    0.46562    0.65776    1.000
    N2248    N        0.36182    0.30961    0.82326    1.000
    Si2249   Si       0.37692    0.26970    0.82304    1.000
    N2250    N        0.35502    0.36912    0.84408    1.000
    Si2251   Si       0.39088    0.34289    0.82306    1.000
    N2252    N        0.39874    0.35698    0.78388    1.000
    N2253    N        0.37143    0.25450    0.86440    1.000
    N2254    N        0.34070    0.48790    0.77710    1.000
    Si2255   Si       0.38679    0.39477    0.76458    1.000
    N2256    N        0.37757    0.41985    0.79933    1.000
    N2257    N        0.39591    0.49087    0.82532    1.000
    Si2258   Si       0.35551    0.50821    0.81433    1.000
    N2259    N        0.35502    0.27028    0.96472    1.000
    Si2260   Si       0.37646    0.30903    0.96234    1.000
    N2261    N        0.36339    0.38122    0.91687    1.000
    Si2262   Si       0.40480    0.36570    0.92279    1.000
    N2263    N        0.39940    0.32226    0.92869    1.000
    N2264    N        0.40637    0.38039    0.96474    1.000
    N2265    N        0.36622    0.43656    0.87220    1.000
    Si2266   Si       0.35111    0.39643    0.87886    1.000
    N2267    N        0.36942    0.44189    0.97957    1.000
    N2268    N        0.40300    0.49196    0.89801    1.000
    Si2269   Si       0.40414    0.44967    0.88979    1.000
    Si2270   Si       0.37701    0.60003    0.06908    1.000
    N2271    N        0.38313    0.55971    0.05277    1.000
    N2272    N        0.39266    0.60594    0.10880    1.000
    Si2273   Si       0.34649    0.53718    0.05345    1.000
    N2274    N        0.34997    0.51462    0.01475    1.000
    Si2275   Si       0.39658    0.60193    0.00272    1.000
    N2276    N        0.39762    0.62505    0.04097    1.000
    N2277    N        0.34660    0.51130    0.08821    1.000
    N2278    N        0.35696    0.73325    0.10916    1.000
    N2279    N        0.36030    0.68033    0.05968    1.000
    N2280    N        0.37366    0.74543    0.02012    1.000
    Si2281   Si       0.35918    0.68887    0.10761    1.000
    Si2282   Si       0.39509    0.75327    0.11362    1.000
    Si2283   Si       0.34701    0.71116    0.03045    1.000
    N2284    N        0.40203    0.63057    0.17740    1.000
    N2285    N        0.34257    0.63052    0.21246    1.000
    N2286    N        0.38026    0.56351    0.18467    1.000
    Si2287   Si       0.34399    0.53440    0.18988    1.000
    N2288    N        0.38564    0.58377    0.24814    1.000
    Si2289   Si       0.39374    0.63918    0.13555    1.000
    N2290    N        0.37475    0.69783    0.20184    1.000
    Si2291   Si       0.36917    0.65739    0.18914    1.000
    Si2292   Si       0.35765    0.69409    0.24297    1.000
    Si2293   Si       0.39733    0.72885    0.18507    1.000
    N2294    N        0.35687    0.66267    0.14522    1.000
    N2295    N        0.35359    0.52077    0.27564    1.000
    N2296    N        0.35450    0.52231    0.34321    1.000
    Si2297   Si       0.38467    0.62463    0.33826    1.000
    Si2298   Si       0.34840    0.55910    0.25799    1.000
    Si2299   Si       0.35463    0.62089    0.25282    1.000
    Si2300   Si       0.38032    0.51453    0.30906    1.000
    N2301    N        0.38642    0.59022    0.36482    1.000
    N2302    N        0.34195    0.63178    0.33383    1.000
    N2303    N        0.35989    0.70061    0.32094    1.000
    N2304    N        0.35736    0.73531    0.25956    1.000
    Si2305   Si       0.35797    0.73922    0.30110    1.000
    N2306    N        0.37674    0.65832    0.25847    1.000
    Si2307   Si       0.39645    0.70578    0.34611    1.000
    N2308    N        0.39319    0.75605    0.32066    1.000
    N2309    N        0.39956    0.66040    0.35823    1.000
    Si2310   Si       0.35730    0.55672    0.36817    1.000
    Si2311   Si       0.35327    0.55975    0.44475    1.000
    N2312    N        0.36931    0.54827    0.48409    1.000
    N2313    N        0.35730    0.60107    0.43411    1.000
    N2314    N        0.37323    0.54637    0.40745    1.000
    Si2315   Si       0.39356    0.59146    0.41042    1.000
    N2316    N        0.36388    0.66591    0.42510    1.000
    Si2317   Si       0.35566    0.74440    0.46474    1.000
    Si2318   Si       0.34871    0.70106    0.40587    1.000
    N2319    N        0.38047    0.72206    0.38354    1.000
    N2320    N        0.37046    0.71836    0.49614    1.000
    N2321    N        0.36309    0.56412    0.56261    1.000
    Si2322   Si       0.38143    0.52366    0.56720    1.000
    Si2323   Si       0.38950    0.63617    0.61476    1.000
    N2324    N        0.34589    0.63566    0.60632    1.000
    N2325    N        0.37211    0.66277    0.54079    1.000
    N2326    N        0.37303    0.73007    0.61523    1.000
    Si2327   Si       0.38972    0.74320    0.52619    1.000
    Si2328   Si       0.37017    0.67489    0.49820    1.000
    N2329    N        0.35774    0.59319    0.70138    1.000
    N2330    N        0.37455    0.53282    0.73431    1.000
    N2331    N        0.36954    0.53921    0.66689    1.000
    Si2332   Si       0.35631    0.60999    0.73970    1.000
    Si2333   Si       0.39633    0.55058    0.70114    1.000
    N2334    N        0.34109    0.68953    0.68019    1.000
    Si2335   Si       0.35667    0.64504    0.68634    1.000
    N2336    N        0.36734    0.65219    0.72816    1.000
    N2337    N        0.35435    0.75687    0.67912    1.000
    N2338    N        0.39049    0.63876    0.65866    1.000
    Si2339   Si       0.37065    0.71816    0.69224    1.000
    N2340    N        0.38167    0.71851    0.73590    1.000
    Si2341   Si       0.36732    0.57659    0.83601    1.000
    Si2342   Si       0.38906    0.55297    0.76926    1.000
    N2343    N        0.36206    0.54891    0.80436    1.000
    N2344    N        0.38887    0.59667    0.76430    1.000
    N2345    N        0.39200    0.61049    0.82861    1.000
    N2346    N        0.38848    0.55168    0.86624    1.000
    N2347    N        0.38586    0.71537    0.81228    1.000
    Si2348   Si       0.37583    0.68168    0.75923    1.000
    Si2349   Si       0.34246    0.71595    0.81060    1.000
    N2350    N        0.35749    0.58078    0.98369    1.000
    N2351    N        0.35643    0.59945    0.91595    1.000
    Si2352   Si       0.35406    0.61369    0.95764    1.000
    N2353    N        0.34859    0.52227    0.94345    1.000
    Si2354   Si       0.39286    0.57638    0.90314    1.000
    Si2355   Si       0.39157    0.51325    0.93550    1.000
    N2356    N        0.39178    0.63160    0.97051    1.000
    Si2357   Si       0.35686    0.71331    0.95904    1.000
    N2358    N        0.39861    0.70115    0.96438    1.000
    N2359    N        0.36699    0.65828    0.87148    1.000
    N2360    N        0.34489    0.75482    0.95929    1.000
    Si2361   Si       0.36405    0.69927    0.88258    1.000
    N2362    N        0.34272    0.69573    0.92080    1.000
    N2363    N        0.37645    0.83039    0.06717    1.000
    Si2364   Si       0.37481    0.86697    0.04110    1.000
    Si2365   Si       0.35261    0.88077    0.11209    1.000
    Si2366   Si       0.39556    0.82808    0.10602    1.000
    N2367    N        0.36703    0.88404    0.99918    1.000
    N2368    N        0.37261    0.89702    0.07472    1.000
    N2369    N        0.35653    0.96675    0.07984    1.000
    N2370    N        0.35021    0.95159    0.01361    1.000
    Si2371   Si       0.35883    0.99455    0.00421    1.000
    Si2372   Si       0.39912    0.97065    0.09463    1.000
    N2373    N        0.37653    0.76699    0.19399    1.000
    N2374    N        0.38587    0.79179    0.12984    1.000
    N2375    N        0.38488    0.86120    0.13326    1.000
    N2376    N        0.36481    0.83364    0.18918    1.000
    Si2377   Si       0.36178    0.79666    0.16618    1.000
    Si2378   Si       0.34422    0.76040    0.22448    1.000
    Si2379   Si       0.39822    0.86151    0.17734    1.000
    Si2380   Si       0.34627    0.95671    0.11964    1.000
    N2381    N        0.38690    0.96720    0.20572    1.000
    N2382    N        0.39311    0.90604    0.18530    1.000
    Si2383   Si       0.36495    0.93000    0.20966    1.000
    N2384    N        0.38814    0.95919    0.13406    1.000
    Si2385   Si       0.36311    0.85398    0.30365    1.000
    N2386    N        0.36658    0.84651    0.26089    1.000
    Si2387   Si       0.36571    0.78408    0.34344    1.000
    N2388    N        0.38031    0.81651    0.31984    1.000
    N2389    N        0.39606    0.88140    0.31025    1.000
    Si2390   Si       0.39764    0.91662    0.33447    1.000
    N2391    N        0.38371    0.94643    0.30494    1.000
    N2392    N        0.36013    0.92587    0.36260    1.000
    Si2393   Si       0.34562    0.94583    0.28486    1.000
    N2394    N        0.35061    0.92261    0.24970    1.000
    N2395    N        0.36887    0.78592    0.38597    1.000
    N2396    N        0.39231    0.82729    0.47677    1.000
    Si2397   Si       0.34835    0.82213    0.47671    1.000
    N2398    N        0.39665    0.87348    0.42487    1.000
    N2399    N        0.38859    0.76111    0.44400    1.000
    Si2400   Si       0.39791    0.75855    0.40129    1.000
    N2401    N        0.39225    0.90029    0.48210    1.000
    N2402    N        0.38334    0.94126    0.42551    1.000
    N2403    N        0.39173    0.99373    0.39087    1.000
    Si2404   Si       0.36249    0.91797    0.45462    1.000
    Si2405   Si       0.36215    0.96051    0.38891    1.000
    Si2406   Si       0.38255    0.83359    0.59549    1.000
    N2407    N        0.35877    0.83091    0.55899    1.000
    N2408    N        0.36201    0.79861    0.61225    1.000
    N2409    N        0.35290    0.75657    0.54869    1.000
    N2410    N        0.36633    0.86380    0.62175    1.000
    Si2411   Si       0.39568    0.96286    0.56588    1.000
    N2412    N        0.38283    0.95375    0.52558    1.000
    N2413    N        0.36157    0.98224    0.58721    1.000
    Si2414   Si       0.36164    0.84554    0.70831    1.000
    N2415    N        0.38923    0.82251    0.73092    1.000
    Si2416   Si       0.37218    0.76651    0.63844    1.000
    N2417    N        0.38349    0.87992    0.69726    1.000
    Si2418   Si       0.37956    0.90536    0.61945    1.000
    N2419    N        0.36470    0.00441    0.71654    1.000
    Si2420   Si       0.38662    0.97015    0.70019    1.000
    N2421    N        0.35161    0.93964    0.70892    1.000
    Si2422   Si       0.37875    0.91033    0.72678    1.000
    N2423    N        0.37519    0.84348    0.85462    1.000
    Si2424   Si       0.38722    0.81070    0.77287    1.000
    N2425    N        0.34998    0.82178    0.78804    1.000
    Si2426   Si       0.34283    0.86723    0.83923    1.000
    N2427    N        0.36788    0.89146    0.76603    1.000
    N2428    N        0.38879    0.96196    0.85522    1.000
    Si2429   Si       0.38452    0.91231    0.79811    1.000
    Si2430   Si       0.37909    0.98010    0.81602    1.000
    N2431    N        0.35800    0.90856    0.83274    1.000
    N2432    N        0.39164    0.95269    0.78423    1.000
    Si2433   Si       0.34774    0.94513    0.85351    1.000
    Si2434   Si       0.36023    0.77850    0.99310    1.000
    N2435    N        0.37980    0.81292    0.97552    1.000
    Si2436   Si       0.36133    0.85235    0.96745    1.000
    Si2437   Si       0.37217    0.83372    0.89929    1.000
    N2438    N        0.37075    0.86523    0.92811    1.000
    N2439    N        0.34553    0.98067    0.91956    1.000
    N2440    N        0.38511    0.92953    0.94713    1.000
    Si2441   Si       0.38477    0.97161    0.93731    1.000
    Si2442   Si       0.35804    0.92276    0.98235    1.000
    N2443    N        0.39037    0.99323    0.97451    1.000
    N2444    N        0.42239    0.06598    0.05321    1.000
    Si2445   Si       0.43431    0.02586    0.06663    1.000
    N2446    N        0.45148    0.12403    0.02289    1.000
    Si2447   Si       0.40779    0.08744    0.08846    1.000
    N2448    N        0.40587    0.01344    0.09734    1.000
    N2449    N        0.43469    0.10544    0.11598    1.000
    Si2450   Si       0.45965    0.08172    0.03025    1.000
    Si2451   Si       0.41173    0.13423    0.00637    1.000
    Si2452   Si       0.42908    0.14552    0.09933    1.000
    N2453    N        0.41450    0.22210    0.06109    1.000
    Si2454   Si       0.45479    0.20813    0.06183    1.000
    N2455    N        0.44208    0.01887    0.22064    1.000
    Si2456   Si       0.43956    0.03589    0.18045    1.000
    N2457    N        0.45033    0.07886    0.18314    1.000
    N2458    N        0.41693    0.17310    0.13054    1.000
    N2459    N        0.43263    0.17819    0.19642    1.000
    Si2460   Si       0.45250    0.17701    0.15715    1.000
    N2461    N        0.45485    0.25903    0.24394    1.000
    N2462    N        0.43607    0.04763    0.30149    1.000
    Si2463   Si       0.42408    0.10499    0.28559    1.000
    Si2464   Si       0.42304    0.03816    0.25695    1.000
    N2465    N        0.43014    0.08127    0.24895    1.000
    Si2466   Si       0.40612    0.05634    0.32917    1.000
    N2467    N        0.41713    0.04600    0.37134    1.000
    Si2468   Si       0.45692    0.00802    0.30504    1.000
    N2469    N        0.42942    0.25207    0.35208    1.000
    N2470    N        0.41814    0.19051    0.32255    1.000
    Si2471   Si       0.43825    0.18830    0.36184    1.000
    Si2472   Si       0.43768    0.16729    0.29146    1.000
    N2473    N        0.40673    0.14319    0.26897    1.000
    N2474    N        0.44665    0.14503    0.36481    1.000
    Si2475   Si       0.44306    0.25761    0.28624    1.000
    N2476    N        0.39970    0.25417    0.28870    1.000
    Si2477   Si       0.45611    0.06503    0.38318    1.000
    N2478    N        0.44025    0.03956    0.44833    1.000
    N2479    N        0.42304    0.08913    0.48197    1.000
    Si2480   Si       0.41074    0.13240    0.48382    1.000
    N2481    N        0.45032    0.09528    0.41417    1.000
    Si2482   Si       0.40090    0.05263    0.46513    1.000
    N2483    N        0.41708    0.20422    0.39555    1.000
    N2484    N        0.40123    0.14570    0.41745    1.000
    Si2485   Si       0.40679    0.19824    0.49226    1.000
    Si2486   Si       0.44332    0.13698    0.40672    1.000
    Si2487   Si       0.42071    0.24552    0.39696    1.000
    N2488    N        0.43693    0.16779    0.48008    1.000
    N2489    N        0.41897    0.11080    0.59932    1.000
    Si2490   Si       0.42423    0.07054    0.52222    1.000
    N2491    N        0.40986    0.03123    0.50728    1.000
    N2492    N        0.40553    0.13477    0.52693    1.000
    Si2493   Si       0.41062    0.14052    0.56864    1.000
    Si2494   Si       0.45130    0.24255    0.54006    1.000
    N2495    N        0.43566    0.17444    0.58084    1.000
    N2496    N        0.43955    0.24080    0.58218    1.000
    N2497    N        0.42527    0.23407    0.50488    1.000
    Si2498   Si       0.41475    0.20904    0.59623    1.000
    Si2499   Si       0.42035    0.04137    0.65113    1.000
    N2500    N        0.44049    0.08154    0.65536    1.000
    Si2501   Si       0.42093    0.08862    0.69500    1.000
    N2502    N        0.44069    0.08477    0.73198    1.000
    Si2503   Si       0.44506    0.11999    0.63300    1.000
    N2504    N        0.46145    0.02604    0.64999    1.000
    N2505    N        0.43937    0.15323    0.66001    1.000
    Si2506   Si       0.42618    0.21783    0.71295    1.000
    N2507    N        0.42951    0.25758    0.69272    1.000
    Si2508   Si       0.42933    0.11570    0.83171    1.000
    Si2509   Si       0.43812    0.02791    0.82063    1.000
    N2510    N        0.44641    0.06501    0.80139    1.000
    Si2511   Si       0.42101    0.08523    0.77080    1.000
    N2512    N        0.44338    0.02116    0.86445    1.000
    N2513    N        0.41021    0.11985    0.79293    1.000
    N2514    N        0.41045    0.22907    0.75109    1.000
    N2515    N        0.41144    0.14571    0.85845    1.000
    N2516    N        0.43056    0.21542    0.86525    1.000
    Si2517   Si       0.43472    0.25875    0.77220    1.000
    N2518    N        0.42416    0.05071    0.98660    1.000
    Si2519   Si       0.45501    0.07091    0.96215    1.000
    N2520    N        0.40500    0.11250    0.91642    1.000
    N2521    N        0.44695    0.17208    0.91246    1.000
    N2522    N        0.40902    0.15268    0.96723    1.000
    Si2523   Si       0.40710    0.24702    0.88852    1.000
    Si2524   Si       0.43451    0.13743    0.93643    1.000
    Si2525   Si       0.41494    0.18081    0.88538    1.000
    Si2526   Si       0.42911    0.24018    0.96749    1.000
    N2527    N        0.44361    0.29402    0.03354    1.000
    N2528    N        0.44549    0.37520    0.10582    1.000
    Si2529   Si       0.40309    0.30929    0.04217    1.000
    Si2530   Si       0.41573    0.37805    0.07415    1.000
    N2531    N        0.43058    0.38109    0.03329    1.000
    N2532    N        0.42568    0.25973    0.12290    1.000
    Si2533   Si       0.41088    0.45211    0.07171    1.000
    N2534    N        0.40776    0.48050    0.10347    1.000
    N2535    N        0.45348    0.43862    0.06329    1.000
    Si2536   Si       0.42913    0.47393    0.00290    1.000
    Si2537   Si       0.42557    0.36654    0.14393    1.000
    N2538    N        0.44519    0.28047    0.18242    1.000
    Si2539   Si       0.41292    0.28633    0.15413    1.000
    N2540    N        0.40692    0.32688    0.14285    1.000
    Si2541   Si       0.42055    0.26395    0.21517    1.000
    N2542    N        0.44829    0.38101    0.17934    1.000
    N2543    N        0.45069    0.34332    0.24560    1.000
    Si2544   Si       0.45934    0.49191    0.19629    1.000
    Si2545   Si       0.44410    0.42088    0.19762    1.000
    N2546    N        0.45805    0.40300    0.23599    1.000
    N2547    N        0.42278    0.50613    0.18127    1.000
    N2548    N        0.40741    0.44386    0.19117    1.000
    N2549    N        0.45652    0.49543    0.23916    1.000
    Si2550   Si       0.42239    0.31913    0.26612    1.000
    N2551    N        0.44970    0.30116    0.29554    1.000
    N2552    N        0.40467    0.35196    0.28699    1.000
    N2553    N        0.40398    0.37486    0.35718    1.000
    Si2554   Si       0.42772    0.38429    0.26046    1.000
    N2555    N        0.45528    0.32517    0.36845    1.000
    N2556    N        0.42320    0.41086    0.29462    1.000
    Si2557   Si       0.40137    0.47169    0.36465    1.000
    N2558    N        0.40762    0.36670    0.47818    1.000
    N2559    N        0.42159    0.29544    0.46788    1.000
    Si2560   Si       0.42565    0.35036    0.38740    1.000
    N2561    N        0.45687    0.26850    0.41185    1.000
    Si2562   Si       0.45941    0.29022    0.45001    1.000
    Si2563   Si       0.44512    0.38383    0.49139    1.000
    N2564    N        0.44593    0.38777    0.40100    1.000
    N2565    N        0.44284    0.50187    0.43291    1.000
    N2566    N        0.43802    0.44739    0.37651    1.000
    N2567    N        0.42959    0.42200    0.47376    1.000
    Si2568   Si       0.41048    0.41145    0.38335    1.000
    Si2569   Si       0.45840    0.48360    0.39548    1.000
    Si2570   Si       0.45018    0.31600    0.54340    1.000
    N2571    N        0.43421    0.33056    0.58155    1.000
    N2572    N        0.41340    0.29163    0.53478    1.000
    Si2573   Si       0.40554    0.36593    0.58455    1.000
    Si2574   Si       0.44759    0.44566    0.50479    1.000
    N2575    N        0.42328    0.46481    0.53500    1.000
    N2576    N        0.43980    0.45419    0.59874    1.000
    Si2577   Si       0.42981    0.42873    0.56366    1.000
    N2578    N        0.44987    0.39256    0.59206    1.000
    Si2579   Si       0.43988    0.50450    0.53442    1.000
    N2580    N        0.45767    0.41116    0.52948    1.000
    N2581    N        0.42087    0.34771    0.71666    1.000
    Si2582   Si       0.42956    0.30139    0.70715    1.000
    Si2583   Si       0.41492    0.27052    0.65213    1.000
    N2584    N        0.45528    0.28459    0.63693    1.000
    N2585    N        0.39827    0.40926    0.68021    1.000
    N2586    N        0.42054    0.40793    0.74312    1.000
    Si2587   Si       0.45117    0.48772    0.69206    1.000
    Si2588   Si       0.42248    0.48528    0.62177    1.000
    N2589    N        0.42305    0.47275    0.66376    1.000
    N2590    N        0.46049    0.46068    0.72831    1.000
    Si2591   Si       0.42855    0.39043    0.70503    1.000
    Si2592   Si       0.42149    0.45020    0.74945    1.000
    N2593    N        0.42755    0.32945    0.83972    1.000
    Si2594   Si       0.42730    0.33892    0.75879    1.000
    N2595    N        0.41880    0.27006    0.81343    1.000
    Si2596   Si       0.44553    0.28733    0.84421    1.000
    N2597    N        0.42845    0.29571    0.75109    1.000
    Si2598   Si       0.45525    0.35562    0.85674    1.000
    N2599    N        0.42797    0.43741    0.85644    1.000
    N2600    N        0.43461    0.45696    0.79003    1.000
    Si2601   Si       0.43811    0.50211    0.80512    1.000
    Si2602   Si       0.40516    0.44711    0.82037    1.000
    Si2603   Si       0.43728    0.30236    0.92630    1.000
    N2604    N        0.43873    0.28134    0.96500    1.000
    N2605    N        0.43542    0.27987    0.88792    1.000
    N2606    N        0.43926    0.37192    0.89310    1.000
    N2607    N        0.42255    0.42816    0.92373    1.000
    Si2608   Si       0.45836    0.40248    0.91622    1.000
    Si2609   Si       0.40426    0.42350    0.96268    1.000
    N2610    N        0.40790    0.49486    0.97101    1.000
    N2611    N        0.43727    0.43382    0.99066    1.000
    Si2612   Si       0.42849    0.55707    0.04620    1.000
    N2613    N        0.44580    0.51982    0.06428    1.000
    N2614    N        0.44720    0.58687    0.07295    1.000
    Si2615   Si       0.43302    0.58836    0.11471    1.000
    N2616    N        0.42549    0.56941    0.00228    1.000
    Si2617   Si       0.44176    0.50918    0.10687    1.000
    Si2618   Si       0.40026    0.66384    0.06042    1.000
    N2619    N        0.42097    0.69694    0.04047    1.000
    Si2620   Si       0.41414    0.74088    0.03678    1.000
    N2621    N        0.40465    0.67092    0.10575    1.000
    N2622    N        0.43662    0.74964    0.99995    1.000
    Si2623   Si       0.45991    0.68324    0.02443    1.000
    N2624    N        0.43185    0.54614    0.12838    1.000
    Si2625   Si       0.41525    0.54502    0.16863    1.000
    N2626    N        0.44195    0.57124    0.19290    1.000
    N2627    N        0.43600    0.62691    0.22880    1.000
    N2628    N        0.45505    0.62111    0.13541    1.000
    Si2629   Si       0.40566    0.59440    0.20741    1.000
    N2630    N        0.43255    0.73013    0.21246    1.000
    N2631    N        0.41346    0.72796    0.14494    1.000
    Si2632   Si       0.43530    0.69254    0.13188    1.000
    Si2633   Si       0.44440    0.63886    0.18390    1.000
    N2634    N        0.44641    0.67872    0.17039    1.000
    Si2635   Si       0.41632    0.57745    0.28045    1.000
    N2636    N        0.41286    0.54372    0.30773    1.000
    Si2637   Si       0.44371    0.52472    0.33289    1.000
    N2638    N        0.40632    0.61547    0.30032    1.000
    N2639    N        0.45707    0.57925    0.26797    1.000
    Si2640   Si       0.41717    0.64395    0.26830    1.000
    N2641    N        0.44698    0.67338    0.28225    1.000
    N2642    N        0.43868    0.71100    0.34226    1.000
    Si2643   Si       0.45698    0.75238    0.35062    1.000
    N2644    N        0.42321    0.62674    0.41270    1.000
    Si2645   Si       0.41094    0.56074    0.48366    1.000
    N2646    N        0.41926    0.57130    0.44267    1.000
    Si2647   Si       0.40749    0.51831    0.41017    1.000
    Si2648   Si       0.45305    0.59929    0.43296    1.000
    N2649    N        0.42435    0.51053    0.37184    1.000
    N2650    N        0.43668    0.68462    0.41519    1.000
    N2651    N        0.40169    0.65330    0.47692    1.000
    Si2652   Si       0.43479    0.65545    0.38261    1.000
    Si2653   Si       0.40651    0.66189    0.43622    1.000
    N2654    N        0.42187    0.53878    0.56074    1.000
    N2655    N        0.41282    0.59130    0.51466    1.000
    N2656    N        0.41218    0.60719    0.59085    1.000
    Si2657   Si       0.45401    0.61118    0.60234    1.000
    Si2658   Si       0.40337    0.58198    0.55597    1.000
    Si2659   Si       0.43061    0.62899    0.50007    1.000
    N2660    N        0.43597    0.52632    0.49630    1.000
    N2661    N        0.44228    0.65563    0.53247    1.000
    N2662    N        0.41503    0.71956    0.55188    1.000
    Si2663   Si       0.41182    0.67510    0.55629    1.000
    N2664    N        0.45041    0.72074    0.61273    1.000
    Si2665   Si       0.45452    0.73070    0.57159    1.000
    N2666    N        0.40669    0.67304    0.60013    1.000
    N2667    N        0.45437    0.51746    0.62456    1.000
    N2668    N        0.43342    0.52538    0.70610    1.000
    Si2669   Si       0.42737    0.62568    0.67936    1.000
    N2670    N        0.42408    0.58592    0.69821    1.000
    N2671    N        0.45545    0.62000    0.64549    1.000
    Si2672   Si       0.45954    0.55990    0.70602    1.000
    N2673    N        0.44953    0.65572    0.70520    1.000
    Si2674   Si       0.44392    0.67005    0.74475    1.000
    Si2675   Si       0.43420    0.74851    0.67248    1.000
    Si2676   Si       0.41657    0.74397    0.74597    1.000
    Si2677   Si       0.40923    0.70948    0.62468    1.000
    N2678    N        0.40953    0.71222    0.66786    1.000
    N2679    N        0.44827    0.71475    0.74851    1.000
    N2680    N        0.42640    0.53909    0.78115    1.000
    Si2681   Si       0.41339    0.62186    0.79046    1.000
    Si2682   Si       0.40798    0.51368    0.86180    1.000
    N2683    N        0.44909    0.51503    0.84765    1.000
    N2684    N        0.45520    0.60722    0.79196    1.000
    Si2685   Si       0.40458    0.63750    0.86016    1.000
    N2686    N        0.44692    0.72916    0.81887    1.000
    N2687    N        0.43491    0.66385    0.84549    1.000
    Si2688   Si       0.42394    0.69149    0.81480    1.000
    N2689    N        0.41366    0.66388    0.77666    1.000
    Si2690   Si       0.40821    0.75152    0.81711    1.000
    N2691    N        0.41899    0.60810    0.89044    1.000
    Si2692   Si       0.44558    0.56135    0.96132    1.000
    N2693    N        0.41132    0.55287    0.93455    1.000
    Si2694   Si       0.45333    0.62216    0.91472    1.000
    Si2695   Si       0.41982    0.66380    0.96492    1.000
    Si2696   Si       0.44007    0.69830    0.90102    1.000
    N2697    N        0.45658    0.66237    0.98729    1.000
    Si2698   Si       0.42627    0.73511    0.96086    1.000
    N2699    N        0.43512    0.66111    0.92248    1.000
    N2700    N        0.40469    0.71968    0.88745    1.000
    N2701    N        0.45755    0.72055    0.93461    1.000
    N2702    N        0.43810    0.82487    0.10116    1.000
    Si2703   Si       0.45121    0.78925    0.07914    1.000
    N2704    N        0.42051    0.87803    0.03771    1.000
    Si2705   Si       0.45573    0.85859    0.12264    1.000
    N2706    N        0.41939    0.75752    0.07644    1.000
    N2707    N        0.43311    0.00001    0.03196    1.000
    Si2708   Si       0.41768    0.90317    0.07259    1.000
    N2709    N        0.42805    0.94544    0.07379    1.000
    N2710    N        0.44995    0.89389    0.10005    1.000
    Si2711   Si       0.45257    0.96146    0.03982    1.000
    Si2712   Si       0.44331    0.89243    0.00325    1.000
    N2713    N        0.45391    0.93399    0.00557    1.000
    N2714    N        0.44289    0.85492    0.16275    1.000
    Si2715   Si       0.43775    0.76400    0.23626    1.000
    N2716    N        0.42214    0.84658    0.21988    1.000
    Si2717   Si       0.45673    0.83348    0.19823    1.000
    Si2718   Si       0.42975    0.97413    0.22320    1.000
    N2719    N        0.44418    0.95959    0.18314    1.000
    Si2720   Si       0.40684    0.94361    0.16965    1.000
    N2721    N        0.43423    0.83429    0.28675    1.000
    Si2722   Si       0.41568    0.79498    0.30477    1.000
    N2723    N        0.45279    0.78824    0.32648    1.000
    Si2724   Si       0.44199    0.87650    0.30166    1.000
    N2725    N        0.40867    0.78584    0.26068    1.000
    Si2726   Si       0.40562    0.82919    0.25552    1.000
    Si2727   Si       0.42070    0.94831    0.28173    1.000
    N2728    N        0.44225    0.92292    0.31016    1.000
    N2729    N        0.42696    0.99121    0.27459    1.000
    N2730    N        0.42314    0.90291    0.36787    1.000
    N2731    N        0.44536    0.93781    0.24787    1.000
    N2732    N        0.45396    0.98382    0.34173    1.000
    Si2733   Si       0.41371    0.78791    0.46979    1.000
    N2734    N        0.45207    0.79626    0.45022    1.000
    Si2735   Si       0.40885    0.86324    0.46507    1.000
    N2736    N        0.45475    0.86636    0.46809    1.000
    N2737    N        0.43947    0.76254    0.38906    1.000
    Si2738   Si       0.40416    0.98104    0.43450    1.000
    N2739    N        0.44809    0.92087    0.42507    1.000
    N2740    N        0.42705    0.96665    0.47795    1.000
    N2741    N        0.44579    0.98324    0.41923    1.000
    Si2742   Si       0.41001    0.90910    0.40847    1.000
    Si2743   Si       0.43937    0.00201    0.37882    1.000
    N2744    N        0.42409    0.82363    0.59992    1.000
    N2745    N        0.42242    0.76845    0.50763    1.000
    N2746    N        0.43173    0.98677    0.55405    1.000
    N2747    N        0.44354    0.92095    0.52394    1.000
    Si2748   Si       0.44116    0.92671    0.61516    1.000
    Si2749   Si       0.43643    0.99786    0.51049    1.000
    Si2750   Si       0.40969    0.93474    0.50106    1.000
    N2751    N        0.45673    0.96651    0.61648    1.000
    N2752    N        0.40158    0.92794    0.58940    1.000
    N2753    N        0.41301    0.77482    0.64590    1.000
    Si2754   Si       0.42804    0.81049    0.71347    1.000
    N2755    N        0.43115    0.83652    0.67819    1.000
    Si2756   Si       0.43270    0.81265    0.64235    1.000
    N2757    N        0.42542    0.76626    0.71093    1.000
    Si2758   Si       0.42188    0.87957    0.67881    1.000
    N2759    N        0.42619    0.00361    0.74251    1.000
    N2760    N        0.41836    0.90539    0.64406    1.000
    Si2761   Si       0.45750    0.93712    0.71075    1.000
    Si2762   Si       0.45675    0.98419    0.65649    1.000
    N2763    N        0.41517    0.98298    0.66995    1.000
    N2764    N        0.41321    0.94023    0.72301    1.000
    N2765    N        0.45948    0.89475    0.69924    1.000
    N2766    N        0.41596    0.83276    0.79918    1.000
    Si2767   Si       0.43906    0.86736    0.81529    1.000
    N2768    N        0.45038    0.84182    0.85062    1.000
    Si2769   Si       0.41154    0.82218    0.84601    1.000
    Si2770   Si       0.45339    0.81847    0.78217    1.000
    N2771    N        0.40496    0.77122    0.77822    1.000
    N2772    N        0.40389    0.77848    0.84949    1.000
    Si2773   Si       0.42577    0.96340    0.75904    1.000
    Si2774   Si       0.41945    0.92893    0.85890    1.000
    N2775    N        0.42152    0.90389    0.82169    1.000
    N2776    N        0.44932    0.99120    0.79926    1.000
    N2777    N        0.45644    0.94969    0.86209    1.000
    Si2778   Si       0.41271    0.80538    0.94905    1.000
    N2779    N        0.44995    0.81138    0.97041    1.000
    N2780    N        0.41336    0.81937    0.90404    1.000
    N2781    N        0.42761    0.87912    0.96474    1.000
    N2782    N        0.41101    0.76434    0.93542    1.000
    Si2783   Si       0.41864    0.76503    0.89014    1.000
    Si2784   Si       0.40623    0.00117    0.87418    1.000
    Si2785   Si       0.42916    0.00880    0.98956    1.000
    N2786    N        0.42356    0.90283    0.89442    1.000
    Si2787   Si       0.40366    0.89520    0.93320    1.000
    Si2788   Si       0.45786    0.96316    0.90293    1.000
    N2789    N        0.41822    0.97859    0.91161    1.000
    N2790    N        0.48929    0.08433    0.06154    1.000
    Si2791   Si       0.50380    0.05684    0.09419    1.000
    N2792    N        0.47562    0.02296    0.07851    1.000
    N2793    N        0.48417    0.06780    0.99594    1.000
    Si2794   Si       0.48016    0.15382    0.03913    1.000
    N2795    N        0.47517    0.19577    0.02346    1.000
    N2796    N        0.47504    0.24046    0.07977    1.000
    N2797    N        0.45854    0.16629    0.07700    1.000
    Si2798   Si       0.49283    0.22500    0.99694    1.000
    Si2799   Si       0.46872    0.24815    0.12403    1.000
    N2800    N        0.47911    0.01769    0.17180    1.000
    N2801    N        0.49811    0.06003    0.23103    1.000
    N2802    N        0.49460    0.07479    0.13474    1.000
    Si2803   Si       0.48759    0.01970    0.21570    1.000
    N2804    N        0.47607    0.12870    0.23494    1.000
    Si2805   Si       0.51228    0.04210    0.15484    1.000
    Si2806   Si       0.46447    0.08887    0.22336    1.000
    Si2807   Si       0.46192    0.09933    0.14787    1.000
    Si2808   Si       0.51695    0.20485    0.17054    1.000
    Si2809   Si       0.51321    0.14378    0.17977    1.000
    N2810    N        0.47746    0.21331    0.14766    1.000
    N2811    N        0.47461    0.14047    0.15948    1.000
    Si2812   Si       0.46512    0.16889    0.22220    1.000
    N2813    N        0.50194    0.18013    0.20298    1.000
    N2814    N        0.49634    0.02061    0.28772    1.000
    Si2815   Si       0.47799    0.12447    0.34511    1.000
    N2816    N        0.48816    0.08278    0.35827    1.000
    N2817    N        0.51361    0.09636    0.29149    1.000
    Si2818   Si       0.49511    0.13254    0.27499    1.000
    N2819    N        0.46116    0.13209    0.30298    1.000
    N2820    N        0.47377    0.23457    0.30552    1.000
    Si2821   Si       0.47268    0.24608    0.34715    1.000
    Si2822   Si       0.49436    0.20350    0.28209    1.000
    N2823    N        0.50837    0.14704    0.36405    1.000
    N2824    N        0.47622    0.20898    0.37055    1.000
    N2825    N        0.46087    0.18775    0.26200    1.000
    N2826    N        0.49735    0.05730    0.44688    1.000
    N2827    N        0.47506    0.02859    0.38981    1.000
    N2828    N        0.48344    0.11591    0.47840    1.000
    Si2829   Si       0.47615    0.01769    0.43142    1.000
    Si2830   Si       0.45951    0.08096    0.45645    1.000
    Si2831   Si       0.48046    0.15799    0.46715    1.000
    Si2832   Si       0.49776    0.17803    0.39185    1.000
    N2833    N        0.51572    0.18262    0.47703    1.000
    N2834    N        0.47419    0.16111    0.42445    1.000
    Si2835   Si       0.49494    0.10086    0.51675    1.000
    N2836    N        0.49119    0.02128    0.57235    1.000
    Si2837   Si       0.49523    0.03775    0.53336    1.000
    N2838    N        0.46544    0.07254    0.53157    1.000
    N2839    N        0.48727    0.11475    0.63024    1.000
    N2840    N        0.49763    0.13534    0.54445    1.000
    N2841    N        0.50960    0.17504    0.59424    1.000
    N2842    N        0.47748    0.20377    0.53478    1.000
    Si2843   Si       0.47649    0.17109    0.56497    1.000
    N2844    N        0.50387    0.24245    0.58999    1.000
    Si2845   Si       0.46854    0.25296    0.61135    1.000
    Si2846   Si       0.51651    0.20423    0.51521    1.000
    Si2847   Si       0.48236    0.07499    0.73412    1.000
    N2848    N        0.49878    0.07651    0.69355    1.000
    Si2849   Si       0.48541    0.06602    0.65324    1.000
    Si2850   Si       0.46850    0.18594    0.66694    1.000
    Si2851   Si       0.50867    0.20792    0.62271    1.000
    N2852    N        0.46909    0.21981    0.64110    1.000
    N2853    N        0.50799    0.17257    0.65627    1.000
    Si2854   Si       0.49275    0.20996    0.74457    1.000
    N2855    N        0.46708    0.19890    0.71130    1.000
    Si2856   Si       0.48281    0.08709    0.80289    1.000
    N2857    N        0.49460    0.10326    0.76539    1.000
    N2858    N        0.47316    0.12105    0.82967    1.000
    N2859    N        0.51537    0.05986    0.81273    1.000
    N2860    N        0.49235    0.03481    0.75008    1.000
    Si2861   Si       0.50242    0.14149    0.85382    1.000
    N2862    N        0.47404    0.23878    0.77224    1.000
    N2863    N        0.49894    0.18585    0.84056    1.000
    Si2864   Si       0.47383    0.22163    0.85787    1.000
    N2865    N        0.50599    0.17581    0.77117    1.000
    N2866    N        0.51649    0.03143    0.87227    1.000
    Si2867   Si       0.47680    0.03094    0.89004    1.000
    Si2868   Si       0.48953    0.01267    0.94873    1.000
    N2869    N        0.46562    0.11283    0.94896    1.000
    Si2870   Si       0.50436    0.12788    0.93439    1.000
    N2871    N        0.46553    0.04489    0.93038    1.000
    N2872    N        0.51190    0.12242    0.89268    1.000
    Si2873   Si       0.47909    0.19896    0.92655    1.000
    N2874    N        0.46871    0.22272    0.96118    1.000
    N2875    N        0.50719    0.17043    0.94127    1.000
    N2876    N        0.49353    0.22670    0.89688    1.000
    N2877    N        0.49887    0.30769    0.06740    1.000
    Si2878   Si       0.50596    0.33979    0.03664    1.000
    Si2879   Si       0.47824    0.27405    0.05127    1.000
    N2880    N        0.49358    0.37746    0.05350    1.000
    N2881    N        0.49534    0.26665    0.01023    1.000
    Si2882   Si       0.51381    0.30947    0.10699    1.000
    N2883    N        0.49144    0.33275    0.99633    1.000
    Si2884   Si       0.46550    0.29596    0.99490    1.000
    Si2885   Si       0.48636    0.38205    0.09725    1.000
    N2886    N        0.51046    0.47752    0.06269    1.000
    N2887    N        0.50035    0.42853    0.01322    1.000
    N2888    N        0.50591    0.42130    0.10506    1.000
    Si2889   Si       0.48408    0.45348    0.08866    1.000
    Si2890   Si       0.46600    0.40712    0.03424    1.000
    N2891    N        0.47571    0.48342    0.11884    1.000
    N2892    N        0.46570    0.49463    0.00825    1.000
    N2893    N        0.50990    0.35204    0.11892    1.000
    Si2894   Si       0.47299    0.36554    0.21422    1.000
    N2895    N        0.49206    0.28252    0.13562    1.000
    N2896    N        0.49478    0.33579    0.18839    1.000
    Si2897   Si       0.48602    0.29403    0.17717    1.000
    N2898    N        0.51441    0.27791    0.20534    1.000
    N2899    N        0.51245    0.35710    0.24479    1.000
    Si2900   Si       0.49635    0.26280    0.24420    1.000
    N2901    N        0.47573    0.45136    0.19201    1.000
    Si2902   Si       0.51782    0.43710    0.19035    1.000
    Si2903   Si       0.50830    0.49564    0.14523    1.000
    Si2904   Si       0.48495    0.33276    0.27165    1.000
    N2905    N        0.49467    0.28443    0.34747    1.000
    N2906    N        0.48893    0.35009    0.31197    1.000
    N2907    N        0.50909    0.29898    0.26079    1.000
    Si2908   Si       0.47039    0.31631    0.32919    1.000
    Si2909   Si       0.51353    0.38492    0.32321    1.000
    Si2910   Si       0.48430    0.49632    0.27317    1.000
    N2911    N        0.48894    0.41856    0.33997    1.000
    N2912    N        0.50541    0.45849    0.28094    1.000
    Si2913   Si       0.49497    0.45852    0.32351    1.000
    N2914    N        0.46698    0.49219    0.31396    1.000
    Si2915   Si       0.48182    0.30188    0.39469    1.000
    Si2916   Si       0.47680    0.36990    0.42794    1.000
    N2917    N        0.47348    0.32645    0.43088    1.000
    N2918    N        0.48669    0.26476    0.47163    1.000
    N2919    N        0.48220    0.38478    0.46836    1.000
    N2920    N        0.47786    0.47772    0.49381    1.000
    Si2921   Si       0.47461    0.41800    0.38302    1.000
    N2922    N        0.49736    0.45600    0.40241    1.000
    N2923    N        0.50874    0.39159    0.40768    1.000
    N2924    N        0.47584    0.28119    0.54627    1.000
    N2925    N        0.50063    0.34924    0.57761    1.000
    Si2926   Si       0.51363    0.26395    0.55407    1.000
    N2927    N        0.46081    0.35083    0.52134    1.000
    Si2928   Si       0.46532    0.35236    0.60345    1.000
    Si2929   Si       0.48799    0.38120    0.54626    1.000
    N2930    N        0.50140    0.43373    0.57275    1.000
    Si2931   Si       0.47446    0.42729    0.60561    1.000
    Si2932   Si       0.50923    0.47626    0.56767    1.000
    N2933    N        0.47892    0.50637    0.55944    1.000
    N2934    N        0.47633    0.35341    0.64527    1.000
    N2935    N        0.47425    0.31093    0.69879    1.000
    Si2936   Si       0.48313    0.31106    0.65713    1.000
    Si2937   Si       0.49269    0.32845    0.73733    1.000
    N2938    N        0.51819    0.30292    0.63316    1.000
    N2939    N        0.49205    0.49088    0.67349    1.000
    Si2940   Si       0.49606    0.38828    0.66559    1.000
    N2941    N        0.50131    0.42146    0.63915    1.000
    Si2942   Si       0.48681    0.42686    0.72448    1.000
    N2943    N        0.47031    0.39729    0.69651    1.000
    N2944    N        0.46892    0.35286    0.76323    1.000
    N2945    N        0.50566    0.29272    0.75871    1.000
    N2946    N        0.49220    0.32991    0.86464    1.000
    Si2947   Si       0.50116    0.26429    0.79574    1.000
    Si2948   Si       0.49007    0.38184    0.78939    1.000
    N2949    N        0.47891    0.25987    0.83565    1.000
    N2950    N        0.47007    0.38765    0.82926    1.000
    N2951    N        0.49705    0.45211    0.83098    1.000
    N2952    N        0.49862    0.41997    0.76594    1.000
    Si2953   Si       0.48390    0.45671    0.78773    1.000
    Si2954   Si       0.47089    0.42662    0.85286    1.000
    N2955    N        0.47802    0.50078    0.78772    1.000
    Si2956   Si       0.51021    0.32479    0.90313    1.000
    N2957    N        0.47457    0.32525    0.92918    1.000
    Si2958   Si       0.49473    0.35326    0.95845    1.000
    Si2959   Si       0.49141    0.49725    0.97445    1.000
    Si2960   Si       0.50608    0.45924    0.90877    1.000
    Si2961   Si       0.47910    0.42876    0.97615    1.000
    N2962    N        0.47845    0.39137    0.95390    1.000
    N2963    N        0.48956    0.46191    0.95007    1.000
    N2964    N        0.49628    0.49779    0.89177    1.000
    N2965    N        0.48739    0.42281    0.89288    1.000
    N2966    N        0.48531    0.59811    0.01679    1.000
    Si2967   Si       0.47722    0.61367    0.05679    1.000
    N2968    N        0.51384    0.53901    0.05278    1.000
    N2969    N        0.51810    0.60465    0.06902    1.000
    Si2970   Si       0.48345    0.50885    0.04406    1.000
    N2971    N        0.46602    0.65387    0.05845    1.000
    N2972    N        0.47048    0.70434    0.11143    1.000
    Si2973   Si       0.49169    0.68731    0.07742    1.000
    N2974    N        0.49333    0.70781    0.03716    1.000
    N2975    N        0.50481    0.57611    0.14853    1.000
    N2976    N        0.50276    0.56927    0.21997    1.000
    Si2977   Si       0.48300    0.55883    0.18356    1.000
    Si2978   Si       0.49620    0.61815    0.14962    1.000
    N2979    N        0.49084    0.51702    0.17860    1.000
    Si2980   Si       0.47454    0.60189    0.23350    1.000
    N2981    N        0.48805    0.63030    0.19087    1.000
    Si2982   Si       0.46526    0.70900    0.19520    1.000
    N2983    N        0.48855    0.69209    0.22610    1.000
    Si2984   Si       0.50930    0.65672    0.21765    1.000
    N2985    N        0.48873    0.73705    0.17084    1.000
    Si2986   Si       0.49251    0.73722    0.12796    1.000
    Si2987   Si       0.48805    0.56642    0.29530    1.000
    N2988    N        0.50701    0.53372    0.27401    1.000
    N2989    N        0.47384    0.55702    0.33436    1.000
    N2990    N        0.50367    0.63126    0.25106    1.000
    N2991    N        0.49823    0.69577    0.30245    1.000
    N2992    N        0.49922    0.74580    0.35401    1.000
    Si2993   Si       0.47584    0.70365    0.26639    1.000
    N2994    N        0.46756    0.65013    0.35532    1.000
    N2995    N        0.46687    0.74575    0.26363    1.000
    Si2996   Si       0.46278    0.67814    0.32329    1.000
    Si2997   Si       0.49408    0.55844    0.37404    1.000
    N2998    N        0.46321    0.61744    0.47199    1.000
    N2999    N        0.49428    0.54020    0.46167    1.000
    N3000    N        0.48159    0.59318    0.39973    1.000
    N3001    N        0.48843    0.51672    0.38444    1.000
    Si3002   Si       0.49739    0.62983    0.37941    1.000
    Si3003   Si       0.46456    0.51107    0.46770    1.000
    N3004    N        0.48413    0.68136    0.47202    1.000
    N3005    N        0.50017    0.65979    0.41204    1.000
    N3006    N        0.48768    0.73545    0.43417    1.000
    Si3007   Si       0.50170    0.72141    0.47264    1.000
    Si3008   Si       0.50035    0.64136    0.47588    1.000
    Si3009   Si       0.47744    0.69197    0.42792    1.000
    N3010    N        0.47451    0.57552    0.59110    1.000
    Si3011   Si       0.45815    0.53605    0.58535    1.000
    N3012    N        0.51046    0.64301    0.51914    1.000
    N3013    N        0.47923    0.64280    0.58488    1.000
    N3014    N        0.48648    0.70571    0.55444    1.000
    Si3015   Si       0.48215    0.66287    0.54658    1.000
    Si3016   Si       0.51012    0.65347    0.61360    1.000
    N3017    N        0.49704    0.75517    0.50289    1.000
    Si3018   Si       0.49045    0.52620    0.64677    1.000
    Si3019   Si       0.49354    0.60215    0.66015    1.000
    N3020    N        0.48451    0.56231    0.67112    1.000
    N3021    N        0.51293    0.62721    0.69065    1.000
    N3022    N        0.48178    0.56475    0.74274    1.000
    Si3023   Si       0.48930    0.71979    0.63330    1.000
    N3024    N        0.50378    0.69930    0.71384    1.000
    N3025    N        0.49823    0.67978    0.64740    1.000
    Si3026   Si       0.48775    0.66655    0.68760    1.000
    N3027    N        0.47567    0.73980    0.66997    1.000
    Si3028   Si       0.51304    0.73496    0.69193    1.000
    N3029    N        0.49290    0.55331    0.81520    1.000
    Si3030   Si       0.49256    0.52793    0.85463    1.000
    Si3031   Si       0.46266    0.56347    0.78356    1.000
    Si3032   Si       0.51846    0.51812    0.79473    1.000
    Si3033   Si       0.49146    0.63302    0.79173    1.000
    N3034    N        0.50707    0.65277    0.82849    1.000
    N3035    N        0.47957    0.66660    0.76706    1.000
    N3036    N        0.50919    0.73127    0.78325    1.000
    Si3037   Si       0.47694    0.65916    0.85940    1.000
    Si3038   Si       0.48299    0.75202    0.81337    1.000
    Si3039   Si       0.48989    0.70739    0.75461    1.000
    N3040    N        0.51637    0.75489    0.84069    1.000
    N3041    N        0.49996    0.55978    0.88867    1.000
    Si3042   Si       0.48261    0.62545    0.98234    1.000
    N3043    N        0.48709    0.62784    0.88637    1.000
    Si3044   Si       0.50160    0.53174    0.91998    1.000
    N3045    N        0.47727    0.53238    0.95587    1.000
    N3046    N        0.46408    0.60019    0.94968    1.000
    Si3047   Si       0.49613    0.71524    0.91663    1.000
    N3048    N        0.47970    0.69790    0.88135    1.000
    N3049    N        0.51795    0.75118    0.91106    1.000
    N3050    N        0.48208    0.77500    0.10796    1.000
    Si3051   Si       0.46505    0.78495    0.00205    1.000
    N3052    N        0.49722    0.84708    0.11520    1.000
    N3053    N        0.50566    0.77058    0.00325    1.000
    Si3054   Si       0.50745    0.80582    0.12192    1.000
    N3055    N        0.46192    0.80246    0.04015    1.000
    N3056    N        0.48136    0.87199    0.99510    1.000
    Si3057   Si       0.47240    0.93130    0.09527    1.000
    N3058    N        0.49099    0.95810    0.06030    1.000
    Si3059   Si       0.49964    0.99094    0.09415    1.000
    N3060    N        0.51429    0.91356    0.10450    1.000
    N3061    N        0.47427    0.96556    0.12097    1.000
    N3062    N        0.49469    0.84940    0.21103    1.000
    N3063    N        0.50933    0.80606    0.16582    1.000
    Si3064   Si       0.49673    0.77375    0.19299    1.000
    N3065    N        0.46077    0.79123    0.21067    1.000
    N3066    N        0.52066    0.76381    0.22742    1.000
    Si3067   Si       0.47865    0.97381    0.16098    1.000
    N3068    N        0.51554    0.95205    0.16775    1.000
    N3069    N        0.50743    0.98646    0.23237    1.000
    N3070    N        0.50158    0.81425    0.27947    1.000
    Si3071   Si       0.49975    0.77322    0.26435    1.000
    Si3072   Si       0.47817    0.82254    0.31836    1.000
    Si3073   Si       0.50008    0.85071    0.25363    1.000
    N3074    N        0.46731    0.86020    0.33588    1.000
    N3075    N        0.47807    0.88130    0.27328    1.000
    Si3076   Si       0.46305    0.88694    0.36904    1.000
    N3077    N        0.49392    0.91788    0.35827    1.000
    Si3078   Si       0.48321    0.92389    0.26267    1.000
    N3079    N        0.49697    0.95265    0.29404    1.000
    Si3080   Si       0.47364    0.94587    0.32981    1.000
    Si3081   Si       0.51768    0.98434    0.27531    1.000
    Si3082   Si       0.47476    0.82755    0.46855    1.000
    N3083    N        0.49801    0.79580    0.40167    1.000
    Si3084   Si       0.46761    0.76999    0.41993    1.000
    Si3085   Si       0.51031    0.83555    0.41183    1.000
    N3086    N        0.47901    0.86713    0.40359    1.000
    N3087    N        0.51582    0.83300    0.45431    1.000
    Si3088   Si       0.48112    0.89458    0.43677    1.000
    Si3089   Si       0.46174    0.95406    0.45014    1.000
    N3090    N        0.48698    0.92322    0.47138    1.000
    N3091    N        0.49951    0.98172    0.44751    1.000
    Si3092   Si       0.50073    0.84334    0.53512    1.000
    Si3093   Si       0.49927    0.86922    0.59784    1.000
    N3094    N        0.49057    0.83372    0.57629    1.000
    N3095    N        0.47788    0.81647    0.50979    1.000
    Si3096   Si       0.46354    0.77812    0.52020    1.000
    Si3097   Si       0.46200    0.80533    0.58994    1.000
    N3098    N        0.46084    0.77143    0.56408    1.000
    N3099    N        0.49066    0.88385    0.53100    1.000
    N3100    N        0.46998    0.90224    0.59504    1.000
    Si3101   Si       0.47722    0.91798    0.55401    1.000
    N3102    N        0.49445    0.95517    0.56080    1.000
    Si3103   Si       0.46772    0.98292    0.57758    1.000
    N3104    N        0.47853    0.00942    0.50493    1.000
    Si3105   Si       0.46792    0.89595    0.49828    1.000
    N3106    N        0.47484    0.80355    0.63272    1.000
    Si3107   Si       0.50452    0.80764    0.72850    1.000
    N3108    N        0.46224    0.81165    0.74075    1.000
    N3109    N        0.50801    0.86459    0.63973    1.000
    Si3110   Si       0.51056    0.82030    0.64952    1.000
    Si3111   Si       0.49428    0.87439    0.68419    1.000
    N3112    N        0.50708    0.83149    0.69246    1.000
    N3113    N        0.48133    0.95951    0.68312    1.000
    N3114    N        0.47662    0.79601    0.80911    1.000
    Si3115   Si       0.49141    0.83107    0.83218    1.000
    N3116    N        0.47422    0.85687    0.79286    1.000
    Si3117   Si       0.51180    0.87771    0.79146    1.000
    N3118    N        0.50543    0.81717    0.87152    1.000
    Si3119   Si       0.49402    0.93630    0.84339    1.000
    Si3120   Si       0.50814    0.94795    0.76957    1.000
    N3121    N        0.50399    0.92034    0.80332    1.000
    Si3122   Si       0.46976    0.99978    0.76155    1.000
    N3123    N        0.46966    0.95605    0.74912    1.000
    N3124    N        0.51749    0.98657    0.78470    1.000
    Si3125   Si       0.50403    0.77489    0.87849    1.000
    N3126    N        0.46948    0.85643    0.91774    1.000
    Si3127   Si       0.46359    0.85151    0.96005    1.000
    N3128    N        0.46010    0.77678    0.88921    1.000
    Si3129   Si       0.46031    0.82294    0.89165    1.000
    N3130    N        0.49162    0.99116    0.91085    1.000
    N3131    N        0.46321    0.98966    0.97203    1.000
    N3132    N        0.50013    0.90394    0.87411    1.000
    N3133    N        0.47051    0.92958    0.93129    1.000
    Si3134   Si       0.47687    0.94766    0.97101    1.000
    Si3135   Si       0.46651    0.89720    0.90250    1.000
    N3136    N        0.54250    0.07974    0.08919    1.000
    N3137    N        0.55141    0.08200    0.01726    1.000
    Si3138   Si       0.52819    0.09770    0.05172    1.000
    N3139    N        0.52282    0.02120    0.11706    1.000
    N3140    N        0.52186    0.14061    0.04717    1.000
    Si3141   Si       0.56179    0.15610    0.05984    1.000
    Si3142   Si       0.56271    0.22107    0.02208    1.000
    N3143    N        0.56671    0.19844    0.05986    1.000
    N3144    N        0.57397    0.13800    0.09827    1.000
    Si3145   Si       0.53855    0.07152    0.21522    1.000
    N3146    N        0.53252    0.11018    0.19828    1.000
    N3147    N        0.54456    0.04128    0.18583    1.000
    Si3148   Si       0.58110    0.01678    0.18617    1.000
    Si3149   Si       0.57649    0.16432    0.13192    1.000
    N3150    N        0.53719    0.16907    0.15206    1.000
    N3151    N        0.54944    0.23057    0.17686    1.000
    N3152    N        0.54857    0.04785    0.32232    1.000
    Si3153   Si       0.55188    0.09249    0.31093    1.000
    N3154    N        0.55557    0.10018    0.35337    1.000
    N3155    N        0.55689    0.05643    0.25427    1.000
    Si3156   Si       0.52790    0.06255    0.36093    1.000
    Si3157   Si       0.51615    0.05576    0.27258    1.000
    N3158    N        0.56322    0.17509    0.34288    1.000
    Si3159   Si       0.56001    0.16692    0.29806    1.000
    N3160    N        0.55188    0.24465    0.35624    1.000
    Si3161   Si       0.56570    0.23359    0.26502    1.000
    N3162    N        0.52169    0.23137    0.25985    1.000
    N3163    N        0.51805    0.16802    0.28869    1.000
    N3164    N        0.55059    0.03849    0.39357    1.000
    Si3165   Si       0.53320    0.06523    0.46709    1.000
    N3166    N        0.56017    0.09568    0.45383    1.000
    N3167    N        0.55067    0.02396    0.46638    1.000
    Si3168   Si       0.56254    0.00737    0.42544    1.000
    N3169    N        0.55532    0.23426    0.45262    1.000
    N3170    N        0.53792    0.18842    0.40452    1.000
    Si3171   Si       0.55051    0.14236    0.36880    1.000
    Si3172   Si       0.54818    0.19054    0.44807    1.000
    Si3173   Si       0.56344    0.20787    0.37492    1.000
    Si3174   Si       0.56231    0.07273    0.53655    1.000
    N3175    N        0.54934    0.05986    0.57645    1.000
    Si3176   Si       0.55509    0.08306    0.61075    1.000
    N3177    N        0.52417    0.06812    0.51180    1.000
    N3178    N        0.56954    0.11504    0.53733    1.000
    N3179    N        0.54771    0.12364    0.59793    1.000
    Si3180   Si       0.52515    0.03122    0.59942    1.000
    Si3181   Si       0.53952    0.14310    0.55804    1.000
    N3182    N        0.54571    0.18187    0.53986    1.000
    N3183    N        0.52961    0.24591    0.51690    1.000
    Si3184   Si       0.53255    0.10171    0.69110    1.000
    N3185    N        0.55158    0.12803    0.65861    1.000
    N3186    N        0.57006    0.08120    0.69205    1.000
    N3187    N        0.52348    0.05770    0.63148    1.000
    Si3188   Si       0.51898    0.14257    0.62570    1.000
    N3189    N        0.52130    0.13694    0.71500    1.000
    Si3190   Si       0.53911    0.16179    0.68363    1.000
    N3191    N        0.57269    0.18648    0.69246    1.000
    N3192    N        0.54023    0.23048    0.64153    1.000
    N3193    N        0.53282    0.22650    0.73398    1.000
    Si3194   Si       0.54399    0.04756    0.84447    1.000
    N3195    N        0.55617    0.12134    0.77344    1.000
    N3196    N        0.55721    0.04352    0.75690    1.000
    N3197    N        0.56020    0.01491    0.82069    1.000
    N3198    N        0.57239    0.06764    0.87237    1.000
    N3199    N        0.54050    0.12527    0.84056    1.000
    Si3200   Si       0.52401    0.03009    0.78310    1.000
    Si3201   Si       0.57386    0.08266    0.76741    1.000
    Si3202   Si       0.57488    0.13195    0.81320    1.000
    N3203    N        0.53435    0.23357    0.80361    1.000
    N3204    N        0.56762    0.17718    0.81161    1.000
    Si3205   Si       0.52721    0.18964    0.80545    1.000
    N3206    N        0.56200    0.24704    0.86739    1.000
    Si3207   Si       0.51886    0.13650    0.75825    1.000
    Si3208   Si       0.55325    0.10937    0.87783    1.000
    N3209    N        0.53521    0.10066    0.95520    1.000
    Si3210   Si       0.56522    0.01794    0.94848    1.000
    N3211    N        0.52611    0.03117    0.96131    1.000
    Si3212   Si       0.57299    0.11922    0.95201    1.000
    Si3213   Si       0.52723    0.06738    0.98286    1.000
    Si3214   Si       0.54334    0.19055    0.95374    1.000
    N3215    N        0.57076    0.16018    0.96630    1.000
    N3216    N        0.53387    0.21088    0.99173    1.000
    N3217    N        0.55722    0.21936    0.92485    1.000
    Si3218   Si       0.53163    0.24703    0.90145    1.000
    N3219    N        0.55446    0.29374    0.10883    1.000
    N3220    N        0.54766    0.32830    0.02674    1.000
    Si3221   Si       0.53836    0.28922    0.00810    1.000
    Si3222   Si       0.57478    0.27842    0.07481    1.000
    N3223    N        0.55787    0.26288    0.03651    1.000
    N3224    N        0.56533    0.43960    0.03022    1.000
    Si3225   Si       0.52756    0.46006    0.02531    1.000
    N3226    N        0.57388    0.43088    0.10489    1.000
    N3227    N        0.53073    0.49338    0.99706    1.000
    N3228    N        0.57660    0.49766    0.06994    1.000
    Si3229   Si       0.57851    0.30851    0.14144    1.000
    Si3230   Si       0.55764    0.26761    0.20169    1.000
    N3231    N        0.56739    0.31047    0.22702    1.000
    N3232    N        0.55989    0.33819    0.16727    1.000
    Si3233   Si       0.52301    0.31849    0.22035    1.000
    Si3234   Si       0.52209    0.35811    0.16002    1.000
    N3235    N        0.57909    0.37808    0.22605    1.000
    Si3236   Si       0.54220    0.42420    0.13145    1.000
    N3237    N        0.52311    0.40021    0.16665    1.000
    N3238    N        0.53381    0.46045    0.15588    1.000
    N3239    N        0.54543    0.43487    0.22515    1.000
    Si3240   Si       0.55036    0.37026    0.26274    1.000
    N3241    N        0.54647    0.37017    0.35025    1.000
    Si3242   Si       0.53569    0.28410    0.36216    1.000
    N3243    N        0.56792    0.33992    0.28734    1.000
    N3244    N        0.57182    0.30293    0.34459    1.000
    N3245    N        0.57830    0.26449    0.29071    1.000
    Si3246   Si       0.57608    0.34427    0.32912    1.000
    N3247    N        0.52946    0.47685    0.34425    1.000
    Si3248   Si       0.54029    0.43770    0.26997    1.000
    N3249    N        0.53747    0.39995    0.29025    1.000
    Si3250   Si       0.56792    0.48575    0.32579    1.000
    N3251    N        0.57323    0.46238    0.28887    1.000
    Si3252   Si       0.56025    0.30980    0.42681    1.000
    N3253    N        0.54796    0.30097    0.46997    1.000
    N3254    N        0.56732    0.35021    0.41392    1.000
    N3255    N        0.52673    0.29725    0.40220    1.000
    Si3256   Si       0.52942    0.26152    0.47598    1.000
    N3257    N        0.55986    0.37757    0.47501    1.000
    Si3258   Si       0.54849    0.38066    0.39092    1.000
    N3259    N        0.56336    0.42132    0.39970    1.000
    Si3260   Si       0.52108    0.48971    0.38448    1.000
    Si3261   Si       0.52791    0.43016    0.42261    1.000
    N3262    N        0.52774    0.43712    0.46730    1.000
    Si3263   Si       0.52247    0.47366    0.49381    1.000
    N3264    N        0.55749    0.49998    0.40456    1.000
    Si3265   Si       0.52003    0.39739    0.48424    1.000
    N3266    N        0.54377    0.29227    0.56847    1.000
    Si3267   Si       0.53228    0.32396    0.59634    1.000
    N3268    N        0.56597    0.34483    0.60831    1.000
    Si3269   Si       0.56969    0.38080    0.51610    1.000
    N3270    N        0.53686    0.46641    0.53512    1.000
    N3271    N        0.56200    0.41310    0.59568    1.000
    Si3272   Si       0.54467    0.42617    0.55350    1.000
    N3273    N        0.53100    0.47829    0.60499    1.000
    N3274    N        0.52747    0.39127    0.52764    1.000
    Si3275   Si       0.56913    0.49821    0.52929    1.000
    Si3276   Si       0.56093    0.36107    0.71110    1.000
    Si3277   Si       0.54167    0.27176    0.65274    1.000
    N3278    N        0.54542    0.28354    0.69345    1.000
    Si3279   Si       0.53321    0.26999    0.73469    1.000
    N3280    N        0.53323    0.34487    0.73811    1.000
    N3281    N        0.53644    0.38254    0.68239    1.000
    Si3282   Si       0.53108    0.47533    0.68534    1.000
    Si3283   Si       0.53807    0.43742    0.62252    1.000
    Si3284   Si       0.55717    0.41907    0.68791    1.000
    N3285    N        0.52877    0.44237    0.71500    1.000
    N3286    N        0.56167    0.45276    0.65924    1.000
    Si3287   Si       0.54392    0.32543    0.77727    1.000
    N3288    N        0.53568    0.29456    0.81530    1.000
    Si3289   Si       0.52798    0.32911    0.83968    1.000
    N3290    N        0.52463    0.35444    0.80448    1.000
    N3291    N        0.56865    0.29150    0.75280    1.000
    N3292    N        0.55555    0.33635    0.87268    1.000
    Si3293   Si       0.56142    0.26141    0.82492    1.000
    N3294    N        0.56803    0.44594    0.84224    1.000
    N3295    N        0.53388    0.47636    0.78427    1.000
    Si3296   Si       0.54027    0.44252    0.75816    1.000
    Si3297   Si       0.53657    0.47024    0.82852    1.000
    N3298    N        0.57610    0.42100    0.77571    1.000
    Si3299   Si       0.56304    0.31351    0.93543    1.000
    N3300    N        0.56422    0.29327    0.97360    1.000
    N3301    N        0.53336    0.28935    0.91267    1.000
    Si3302   Si       0.56520    0.37738    0.93497    1.000
    N3303    N        0.53223    0.34896    0.93670    1.000
    N3304    N        0.57230    0.39584    0.89586    1.000
    Si3305   Si       0.57617    0.43641    0.88516    1.000
    N3306    N        0.57463    0.39614    0.97347    1.000
    N3307    N        0.55078    0.46118    0.90839    1.000
    Si3308   Si       0.57060    0.50289    0.91828    1.000
    N3309    N        0.54444    0.56719    0.00204    1.000
    N3310    N        0.53331    0.52104    0.12059    1.000
    Si3311   Si       0.51913    0.57728    0.03539    1.000
    Si3312   Si       0.53626    0.50956    0.07888    1.000
    Si3313   Si       0.54292    0.63126    0.09080    1.000
    N3314    N        0.53190    0.67399    0.08418    1.000
    Si3315   Si       0.55975    0.69834    0.10715    1.000
    N3316    N        0.55194    0.74533    0.04835    1.000
    N3317    N        0.53654    0.73388    0.11512    1.000
    Si3318   Si       0.52187    0.73491    0.02124    1.000
    Si3319   Si       0.54407    0.55841    0.13787    1.000
    N3320    N        0.56665    0.55256    0.17434    1.000
    N3321    N        0.56881    0.52865    0.24272    1.000
    N3322    N        0.53333    0.63378    0.13404    1.000
    Si3323   Si       0.56080    0.65060    0.16321    1.000
    N3324    N        0.55061    0.66899    0.20329    1.000
    Si3325   Si       0.53637    0.61809    0.27644    1.000
    Si3326   Si       0.55322    0.56442    0.33165    1.000
    N3327    N        0.52406    0.58761    0.30607    1.000
    N3328    N        0.57020    0.52782    0.31549    1.000
    N3329    N        0.55862    0.59187    0.24898    1.000
    Si3330   Si       0.56958    0.63170    0.34116    1.000
    Si3331   Si       0.53389    0.55540    0.24629    1.000
    Si3332   Si       0.57572    0.68774    0.29590    1.000
    Si3333   Si       0.52236    0.72735    0.32006    1.000
    N3334    N        0.56503    0.70982    0.25994    1.000
    N3335    N        0.56201    0.64455    0.29918    1.000
    N3336    N        0.55706    0.70457    0.33323    1.000
    Si3337   Si       0.55938    0.75545    0.24918    1.000
    N3338    N        0.53105    0.75909    0.29301    1.000
    N3339    N        0.53888    0.63052    0.37141    1.000
    N3340    N        0.53777    0.55825    0.37159    1.000
    N3341    N        0.56016    0.56130    0.44212    1.000
    Si3342   Si       0.53471    0.54482    0.47553    1.000
    Si3343   Si       0.56407    0.54416    0.40373    1.000
    Si3344   Si       0.56551    0.59859    0.46436    1.000
    N3345    N        0.54856    0.50860    0.49237    1.000
    N3346    N        0.53996    0.63239    0.45408    1.000
    Si3347   Si       0.54657    0.64982    0.41345    1.000
    N3348    N        0.54468    0.72171    0.47338    1.000
    N3349    N        0.56157    0.69141    0.40767    1.000
    N3350    N        0.54394    0.59218    0.56783    1.000
    Si3351   Si       0.54052    0.61325    0.52910    1.000
    N3352    N        0.56387    0.51938    0.56602    1.000
    Si3353   Si       0.55339    0.51607    0.60738    1.000
    N3354    N        0.54278    0.58173    0.49874    1.000
    Si3355   Si       0.51812    0.58010    0.59948    1.000
    Si3356   Si       0.54114    0.75242    0.50480    1.000
    N3357    N        0.54802    0.74631    0.54687    1.000
    N3358    N        0.53476    0.67805    0.58770    1.000
    Si3359   Si       0.52367    0.71995    0.57193    1.000
    N3360    N        0.57444    0.64096    0.53599    1.000
    Si3361   Si       0.57481    0.66550    0.57172    1.000
    N3362    N        0.51744    0.74101    0.60748    1.000
    N3363    N        0.52183    0.54083    0.61970    1.000
    N3364    N        0.51959    0.61374    0.62790    1.000
    N3365    N        0.55285    0.51092    0.69672    1.000
    Si3366   Si       0.55385    0.61978    0.70024    1.000
    Si3367   Si       0.57504    0.54364    0.70968    1.000
    N3368    N        0.55180    0.57876    0.71573    1.000
    N3369    N        0.57031    0.64383    0.73487    1.000
    N3370    N        0.54850    0.73621    0.66808    1.000
    Si3371   Si       0.55019    0.76003    0.62869    1.000
    N3372    N        0.54315    0.54474    0.77244    1.000
    Si3373   Si       0.56619    0.62076    0.77098    1.000
    Si3374   Si       0.56697    0.54121    0.85072    1.000
    N3375    N        0.55556    0.58385    0.86216    1.000
    N3376    N        0.53408    0.51214    0.83970    1.000
    N3377    N        0.52317    0.61071    0.77341    1.000
    Si3378   Si       0.52317    0.57521    0.74874    1.000
    N3379    N        0.56142    0.70366    0.83243    1.000
    Si3380   Si       0.54867    0.66235    0.83432    1.000
    Si3381   Si       0.54395    0.73738    0.81101    1.000
    N3382    N        0.56793    0.75589    0.78019    1.000
    N3383    N        0.57582    0.64030    0.80818    1.000
    N3384    N        0.54128    0.52643    0.93663    1.000
    N3385    N        0.54879    0.60539    0.92067    1.000
    Si3386   Si       0.54848    0.52753    0.97944    1.000
    Si3387   Si       0.56205    0.62128    0.95957    1.000
    Si3388   Si       0.52080    0.59826    0.88785    1.000
    Si3389   Si       0.56520    0.67879    0.91040    1.000
    N3390    N        0.52745    0.68948    0.92823    1.000
    Si3391   Si       0.53798    0.68167    0.96860    1.000
    Si3392   Si       0.56084    0.75073    0.90854    1.000
    N3393    N        0.54672    0.71849    0.98681    1.000
    N3394    N        0.52229    0.63968    0.97385    1.000
    N3395    N        0.56334    0.65068    0.87614    1.000
    N3396    N        0.54144    0.83877    0.02133    1.000
    N3397    N        0.54325    0.80191    0.09947    1.000
    N3398    N        0.56505    0.86475    0.09083    1.000
    Si3399   Si       0.56658    0.86740    0.04739    1.000
    Si3400   Si       0.53036    0.87490    0.11353    1.000
    Si3401   Si       0.52298    0.87771    0.00491    1.000
    Si3402   Si       0.55365    0.76115    0.08700    1.000
    Si3403   Si       0.53757    0.80121    0.99645    1.000
    Si3404   Si       0.56230    0.00509    0.11007    1.000
    N3405    N        0.53474    0.89869    0.03998    1.000
    N3406    N        0.55982    0.96153    0.03898    1.000
    N3407    N        0.54149    0.96720    0.10017    1.000
    Si3408   Si       0.53242    0.93875    0.06209    1.000
    N3409    N        0.56580    0.83246    0.19669    1.000
    Si3410   Si       0.52697    0.84349    0.18087    1.000
    N3411    N        0.54245    0.87470    0.15543    1.000
    Si3412   Si       0.57223    0.83203    0.24047    1.000
    N3413    N        0.51952    0.92333    0.23661    1.000
    Si3414   Si       0.53014    0.95661    0.20982    1.000
    Si3415   Si       0.57750    0.89733    0.17009    1.000
    N3416    N        0.56724    0.97785    0.20627    1.000
    Si3417   Si       0.53516    0.93902    0.13256    1.000
    Si3418   Si       0.54323    0.80280    0.29837    1.000
    Si3419   Si       0.56210    0.82980    0.35912    1.000
    N3420    N        0.57055    0.79585    0.26104    1.000
    N3421    N        0.54424    0.86172    0.25468    1.000
    N3422    N        0.57338    0.82996    0.31636    1.000
    N3423    N        0.51885    0.81231    0.33957    1.000
    Si3424   Si       0.52022    0.78013    0.36921    1.000
    N3425    N        0.55976    0.98650    0.28776    1.000
    N3426    N        0.56432    0.91429    0.36009    1.000
    N3427    N        0.57598    0.91756    0.27921    1.000
    Si3428   Si       0.55670    0.90166    0.24521    1.000
    N3429    N        0.56246    0.78663    0.37742    1.000
    N3430    N        0.56601    0.78327    0.48694    1.000
    N3431    N        0.54136    0.85505    0.38694    1.000
    Si3432   Si       0.55103    0.82592    0.48150    1.000
    N3433    N        0.54243    0.95460    0.48488    1.000
    Si3434   Si       0.52791    0.94525    0.44505    1.000
    N3435    N        0.52114    0.91112    0.42045    1.000
    Si3436   Si       0.52767    0.89891    0.37880    1.000
    N3437    N        0.55630    0.96522    0.41553    1.000
    Si3438   Si       0.51854    0.99242    0.48742    1.000
    N3439    N        0.54204    0.83825    0.52194    1.000
    Si3440   Si       0.56609    0.85286    0.55705    1.000
    N3441    N        0.53750    0.87826    0.57940    1.000
    N3442    N        0.56155    0.94403    0.55273    1.000
    N3443    N        0.54261    0.99078    0.60093    1.000
    Si3444   Si       0.53333    0.97727    0.55966    1.000
    Si3445   Si       0.56634    0.91263    0.58125    1.000
    N3446    N        0.53677    0.00484    0.52552    1.000
    Si3447   Si       0.57497    0.94282    0.51110    1.000
    N3448    N        0.54623    0.80195    0.63600    1.000
    Si3449   Si       0.55446    0.77193    0.74252    1.000
    N3450    N        0.51626    0.76636    0.71923    1.000
    N3451    N        0.52824    0.90339    0.68675    1.000
    Si3452   Si       0.52288    0.94920    0.69252    1.000
    N3453    N        0.55792    0.92529    0.62172    1.000
    N3454    N        0.55272    0.97194    0.67184    1.000
    Si3455   Si       0.54541    0.89044    0.64729    1.000
    Si3456   Si       0.56232    0.96644    0.62909    1.000
    Si3457   Si       0.55275    0.90557    0.72519    1.000
    N3458    N        0.53534    0.94504    0.73418    1.000
    Si3459   Si       0.56795    0.84667    0.75427    1.000
    N3460    N        0.52866    0.85180    0.82422    1.000
    N3461    N        0.54024    0.81280    0.75299    1.000
    N3462    N        0.53443    0.87895    0.75450    1.000
    Si3463   Si       0.57149    0.86420    0.82799    1.000
    Si3464   Si       0.54668    0.82705    0.87322    1.000
    Si3465   Si       0.54754    0.97331    0.81468    1.000
    N3466    N        0.56728    0.89954    0.85034    1.000
    N3467    N        0.52478    0.96437    0.85119    1.000
    N3468    N        0.56311    0.78735    0.88494    1.000
    N3469    N        0.53405    0.81333    0.95478    1.000
    N3470    N        0.54953    0.85836    0.90207    1.000
    Si3471   Si       0.55793    0.84659    0.94155    1.000
    N3472    N        0.54420    0.88012    0.96794    1.000
    Si3473   Si       0.52713    0.99212    0.88605    1.000
    Si3474   Si       0.54157    0.89765    0.88445    1.000
    N3475    N        0.52036    0.94795    0.97534    1.000
    N3476    N        0.57637    0.99797    0.98413    1.000
    Si3477   Si       0.54674    0.92036    0.95467    1.000
    N3478    N        0.55896    0.92475    0.91314    1.000
    N3479    N        0.56144    0.99175    0.91254    1.000
    Si3480   Si       0.55622    0.96334    0.99691    1.000
    N3481    N        0.60998    0.08442    0.06653    1.000
    N3482    N        0.61615    0.05421    0.01274    1.000
    Si3483   Si       0.61657    0.03982    0.05424    1.000
    Si3484   Si       0.59457    0.09369    0.02240    1.000
    N3485    N        0.58326    0.01402    0.07304    1.000
    Si3486   Si       0.58093    0.09476    0.09804    1.000
    N3487    N        0.59024    0.13940    0.03159    1.000
    Si3488   Si       0.60241    0.21017    0.08563    1.000
    N3489    N        0.60842    0.25229    0.07651    1.000
    N3490    N        0.59958    0.20574    0.00234    1.000
    Si3491   Si       0.63017    0.10833    0.15014    1.000
    N3492    N        0.58711    0.01191    0.14412    1.000
    Si3493   Si       0.62563    0.03381    0.12882    1.000
    N3494    N        0.60497    0.07553    0.13103    1.000
    N3495    N        0.60825    0.03559    0.21591    1.000
    N3496    N        0.61604    0.15412    0.22201    1.000
    Si3497   Si       0.63100    0.16955    0.18457    1.000
    N3498    N        0.60961    0.14534    0.15316    1.000
    N3499    N        0.58365    0.24639    0.22910    1.000
    N3500    N        0.58534    0.20629    0.12417    1.000
    Si3501   Si       0.62285    0.23186    0.22044    1.000
    Si3502   Si       0.58772    0.23147    0.15797    1.000
    N3503    N        0.62079    0.21347    0.18137    1.000
    N3504    N        0.61229    0.02645    0.28850    1.000
    N3505    N        0.62174    0.09004    0.25728    1.000
    Si3506   Si       0.60064    0.05050    0.25640    1.000
    Si3507   Si       0.62010    0.11630    0.29710    1.000
    N3508    N        0.62636    0.11613    0.33886    1.000
    Si3509   Si       0.59768    0.10481    0.36789    1.000
    N3510    N        0.59893    0.01307    0.35173    1.000
    Si3511   Si       0.57797    0.01724    0.31465    1.000
    N3512    N        0.57524    0.12587    0.29490    1.000
    Si3513   Si       0.62018    0.17684    0.25750    1.000
    N3514    N        0.62486    0.24882    0.34090    1.000
    N3515    N        0.58345    0.19426    0.27319    1.000
    N3516    N        0.61636    0.07461    0.39047    1.000
    Si3517   Si       0.59311    0.03800    0.38520    1.000
    N3518    N        0.60492    0.01381    0.41908    1.000
    Si3519   Si       0.58951    0.12597    0.44014    1.000
    N3520    N        0.63268    0.11696    0.44438    1.000
    N3521    N        0.59762    0.21788    0.39813    1.000
    N3522    N        0.58480    0.13441    0.39759    1.000
    Si3523   Si       0.61897    0.17962    0.48141    1.000
    N3524    N        0.62319    0.24537    0.46123    1.000
    N3525    N        0.58479    0.16798    0.45803    1.000
    Si3526   Si       0.59211    0.24632    0.43171    1.000
    N3527    N        0.59597    0.04899    0.52253    1.000
    N3528    N        0.62764    0.03875    0.58635    1.000
    Si3529   Si       0.63486    0.05550    0.54603    1.000
    Si3530   Si       0.60942    0.13087    0.54362    1.000
    N3531    N        0.63377    0.09903    0.55632    1.000
    Si3532   Si       0.57383    0.01634    0.50409    1.000
    N3533    N        0.60214    0.16621    0.56858    1.000
    N3534    N        0.60534    0.20660    0.51334    1.000
    Si3535   Si       0.61868    0.24616    0.50352    1.000
    N3536    N        0.63092    0.14321    0.50578    1.000
    Si3537   Si       0.62923    0.17846    0.60007    1.000
    Si3538   Si       0.58288    0.20183    0.55042    1.000
    N3539    N        0.58100    0.23641    0.57712    1.000
    Si3540   Si       0.57899    0.23509    0.62079    1.000
    N3541    N        0.59663    0.08510    0.62484    1.000
    Si3542   Si       0.60811    0.06165    0.70501    1.000
    Si3543   Si       0.59299    0.10735    0.66243    1.000
    N3544    N        0.60588    0.01748    0.70277    1.000
    N3545    N        0.63381    0.08400    0.67711    1.000
    N3546    N        0.60873    0.08355    0.74293    1.000
    Si3547   Si       0.57665    0.21749    0.72383    1.000
    N3548    N        0.60083    0.25050    0.70625    1.000
    N3549    N        0.61904    0.14225    0.65830    1.000
    Si3550   Si       0.60738    0.18271    0.66695    1.000
    N3551    N        0.60387    0.20012    0.62931    1.000
    Si3552   Si       0.61267    0.07528    0.84533    1.000
    Si3553   Si       0.59572    0.02929    0.80166    1.000
    N3554    N        0.60428    0.12218    0.84921    1.000
    N3555    N        0.58853    0.07289    0.80711    1.000
    N3556    N        0.62509    0.02957    0.83439    1.000
    N3557    N        0.61747    0.14104    0.79096    1.000
    Si3558   Si       0.60596    0.18684    0.79503    1.000
    N3559    N        0.62894    0.20711    0.82461    1.000
    N3560    N        0.60513    0.19802    0.75252    1.000
    Si3561   Si       0.62738    0.04886    0.97134    1.000
    Si3562   Si       0.59739    0.07265    0.90648    1.000
    N3563    N        0.60440    0.10646    0.97880    1.000
    N3564    N        0.59488    0.04901    0.94129    1.000
    N3565    N        0.63542    0.06948    0.88589    1.000
    N3566    N        0.58063    0.11471    0.90999    1.000
    Si3567   Si       0.58625    0.21990    0.89181    1.000
    Si3568   Si       0.63591    0.22678    0.99880    1.000
    N3569    N        0.62938    0.23259    0.89446    1.000
    N3570    N        0.60045    0.18041    0.88150    1.000
    Si3571   Si       0.61403    0.13986    0.88973    1.000
    Si3572   Si       0.60072    0.16312    0.99798    1.000
    N3573    N        0.60495    0.31026    0.06063    1.000
    N3574    N        0.60224    0.37167    0.06286    1.000
    Si3575   Si       0.62507    0.34036    0.08594    1.000
    Si3576   Si       0.59187    0.34180    0.03445    1.000
    N3577    N        0.62783    0.26913    0.00708    1.000
    Si3578   Si       0.63349    0.27844    0.04917    1.000
    N3579    N        0.61397    0.33548    0.99831    1.000
    N3580    N        0.63069    0.50111    0.02769    1.000
    N3581    N        0.62350    0.44188    0.05872    1.000
    N3582    N        0.62916    0.39958    0.01048    1.000
    Si3583   Si       0.58235    0.45164    0.06792    1.000
    Si3584   Si       0.59519    0.42561    0.00099    1.000
    Si3585   Si       0.63754    0.40160    0.05994    1.000
    N3586    N        0.61346    0.33237    0.12790    1.000
    Si3587   Si       0.58641    0.34384    0.20030    1.000
    N3588    N        0.62610    0.32808    0.19158    1.000
    N3589    N        0.59125    0.27526    0.16849    1.000
    Si3590   Si       0.63074    0.28547    0.18275    1.000
    Si3591   Si       0.61312    0.42181    0.12599    1.000
    N3592    N        0.60315    0.42329    0.17089    1.000
    N3593    N        0.61803    0.43715    0.23551    1.000
    Si3594   Si       0.58534    0.42020    0.21059    1.000
    Si3595   Si       0.62645    0.46073    0.17422    1.000
    N3596    N        0.60728    0.49558    0.18961    1.000
    N3597    N        0.63052    0.46254    0.12946    1.000
    N3598    N        0.62059    0.35501    0.33345    1.000
    N3599    N        0.62759    0.31154    0.27095    1.000
    Si3600   Si       0.58237    0.30360    0.26957    1.000
    Si3601   Si       0.58526    0.26419    0.33436    1.000
    N3602    N        0.60033    0.47471    0.35231    1.000
    Si3603   Si       0.61415    0.45713    0.27420    1.000
    N3604    N        0.62695    0.49905    0.28094    1.000
    N3605    N        0.63376    0.43238    0.30406    1.000
    Si3606   Si       0.63518    0.45000    0.34313    1.000
    N3607    N        0.63171    0.41384    0.37226    1.000
    N3608    N        0.60617    0.33053    0.46275    1.000
    Si3609   Si       0.59134    0.36648    0.44563    1.000
    Si3610   Si       0.63024    0.31197    0.43136    1.000
    N3611    N        0.59550    0.28580    0.41916    1.000
    Si3612   Si       0.58175    0.31416    0.49361    1.000
    N3613    N        0.62330    0.47003    0.41703    1.000
    Si3614   Si       0.60591    0.42946    0.40403    1.000
    Si3615   Si       0.59902    0.49435    0.39052    1.000
    N3616    N        0.61309    0.40212    0.43729    1.000
    N3617    N        0.61291    0.30136    0.57526    1.000
    Si3618   Si       0.61756    0.34170    0.55179    1.000
    N3619    N        0.62282    0.37522    0.57818    1.000
    N3620    N        0.59266    0.27896    0.51641    1.000
    Si3621   Si       0.59703    0.31230    0.61469    1.000
    N3622    N        0.58244    0.34204    0.52822    1.000
    Si3623   Si       0.58226    0.27614    0.55762    1.000
    Si3624   Si       0.59119    0.38219    0.60621    1.000
    N3625    N        0.61203    0.49028    0.52913    1.000
    Si3626   Si       0.61803    0.44618    0.52380    1.000
    N3627    N        0.58532    0.41972    0.52956    1.000
    N3628    N        0.62951    0.32705    0.63956    1.000
    N3629    N        0.59212    0.33514    0.69479    1.000
    Si3630   Si       0.62109    0.35514    0.67096    1.000
    Si3631   Si       0.59109    0.29467    0.71289    1.000
    N3632    N        0.58073    0.27699    0.63129    1.000
    N3633    N        0.62762    0.30719    0.74175    1.000
    N3634    N        0.61086    0.39060    0.64507    1.000
    Si3635   Si       0.59921    0.47484    0.65419    1.000
    N3636    N        0.62343    0.48113    0.69021    1.000
    N3637    N        0.62450    0.45429    0.62707    1.000
    N3638    N        0.58533    0.39906    0.71332    1.000
    Si3639   Si       0.61897    0.35884    0.80755    1.000
    Si3640   Si       0.60547    0.29542    0.77714    1.000
    N3641    N        0.58761    0.33190    0.79579    1.000
    N3642    N        0.62618    0.37431    0.76638    1.000
    N3643    N        0.60139    0.26581    0.80865    1.000
    N3644    N        0.60017    0.38520    0.83563    1.000
    Si3645   Si       0.59428    0.42473    0.81550    1.000
    N3646    N        0.63106    0.44604    0.81560    1.000
    Si3647   Si       0.60731    0.40982    0.74885    1.000
    Si3648   Si       0.59067    0.36256    0.87254    1.000
    N3649    N        0.62758    0.33779    0.87978    1.000
    Si3650   Si       0.60805    0.29667    0.98012    1.000
    N3651    N        0.59476    0.34564    0.93813    1.000
    N3652    N        0.62140    0.28827    0.94038    1.000
    Si3653   Si       0.61288    0.37401    0.97348    1.000
    Si3654   Si       0.62972    0.32566    0.92051    1.000
    N3655    N        0.61586    0.45525    0.97817    1.000
    Si3656   Si       0.62954    0.44749    0.93503    1.000
    N3657    N        0.61083    0.49374    0.93247    1.000
    N3658    N        0.61906    0.44245    0.89002    1.000
    Si3659   Si       0.62177    0.49943    0.98110    1.000
    N3660    N        0.63552    0.40050    0.94575    1.000
    Si3661   Si       0.60334    0.58915    0.08413    1.000
    Si3662   Si       0.61177    0.52344    0.06027    1.000
    N3663    N        0.60026    0.56446    0.04924    1.000
    Si3664   Si       0.58998    0.56991    0.00763    1.000
    N3665    N        0.58543    0.62978    0.07959    1.000
    N3666    N        0.59334    0.70028    0.07930    1.000
    Si3667   Si       0.60613    0.66348    0.06166    1.000
    Si3668   Si       0.61301    0.73832    0.06402    1.000
    N3669    N        0.59802    0.66621    0.01873    1.000
    N3670    N        0.58151    0.57690    0.12139    1.000
    Si3671   Si       0.59180    0.53087    0.20552    1.000
    Si3672   Si       0.59994    0.58094    0.16258    1.000
    N3673    N        0.61519    0.56950    0.21031    1.000
    N3674    N        0.59400    0.62262    0.17385    1.000
    Si3675   Si       0.60269    0.59117    0.24499    1.000
    N3676    N        0.61869    0.63251    0.24391    1.000
    Si3677   Si       0.61648    0.70300    0.15242    1.000
    N3678    N        0.57840    0.68375    0.14330    1.000
    N3679    N        0.61785    0.74723    0.15473    1.000
    Si3680   Si       0.62031    0.64322    0.20205    1.000
    N3681    N        0.61736    0.68845    0.19643    1.000
    N3682    N        0.58648    0.74541    0.21511    1.000
    Si3683   Si       0.57974    0.70144    0.21790    1.000
    N3684    N        0.61566    0.56798    0.28069    1.000
    Si3685   Si       0.59461    0.52879    0.27802    1.000
    N3686    N        0.58607    0.59203    0.33517    1.000
    Si3687   Si       0.62634    0.58591    0.32121    1.000
    N3688    N        0.61860    0.68839    0.29990    1.000
    N3689    N        0.60336    0.65894    0.35798    1.000
    Si3690   Si       0.58036    0.69674    0.36908    1.000
    N3691    N        0.60654    0.73103    0.36886    1.000
    N3692    N        0.60625    0.53549    0.39402    1.000
    N3693    N        0.60147    0.61477    0.48204    1.000
    N3694    N        0.58769    0.63005    0.41732    1.000
    Si3695   Si       0.57437    0.71060    0.44388    1.000
    N3696    N        0.60603    0.68366    0.45658    1.000
    N3697    N        0.62756    0.73720    0.48790    1.000
    Si3698   Si       0.62671    0.63449    0.39274    1.000
    Si3699   Si       0.61380    0.64145    0.45138    1.000
    N3700    N        0.59080    0.74977    0.43195    1.000
    N3701    N        0.61416    0.59229    0.55301    1.000
    Si3702   Si       0.61325    0.62378    0.52258    1.000
    Si3703   Si       0.58512    0.59836    0.58331    1.000
    N3704    N        0.59414    0.57865    0.61976    1.000
    N3705    N        0.58849    0.63854    0.60111    1.000
    N3706    N        0.59626    0.70307    0.56376    1.000
    Si3707   Si       0.58769    0.74631    0.56773    1.000
    N3708    N        0.58735    0.75503    0.60891    1.000
    Si3709   Si       0.60398    0.61917    0.63842    1.000
    N3710    N        0.61025    0.54915    0.68215    1.000
    Si3711   Si       0.61528    0.54685    0.63875    1.000
    Si3712   Si       0.62949    0.52000    0.70994    1.000
    N3713    N        0.60150    0.52863    0.74174    1.000
    N3714    N        0.58978    0.51068    0.63127    1.000
    N3715    N        0.58887    0.63323    0.67539    1.000
    Si3716   Si       0.58653    0.73260    0.68942    1.000
    N3717    N        0.60650    0.69740    0.70854    1.000
    N3718    N        0.62393    0.73787    0.66432    1.000
    Si3719   Si       0.60487    0.65458    0.70984    1.000
    N3720    N        0.59564    0.58999    0.76956    1.000
    N3721    N        0.59801    0.53847    0.81783    1.000
    N3722    N        0.61692    0.61207    0.85920    1.000
    Si3723   Si       0.58658    0.54854    0.77713    1.000
    Si3724   Si       0.63617    0.60655    0.76172    1.000
    Si3725   Si       0.61384    0.63762    0.82561    1.000
    Si3726   Si       0.60216    0.71796    0.85367    1.000
    N3727    N        0.62216    0.67691    0.84160    1.000
    N3728    N        0.60616    0.75874    0.83290    1.000
    N3729    N        0.63940    0.72489    0.78132    1.000
    N3730    N        0.59131    0.53216    0.98407    1.000
    N3731    N        0.58670    0.52774    0.88631    1.000
    Si3732   Si       0.62933    0.51296    0.89895    1.000
    Si3733   Si       0.63197    0.61406    0.95770    1.000
    N3734    N        0.59682    0.60382    0.98123    1.000
    N3735    N        0.61523    0.61385    0.91771    1.000
    Si3736   Si       0.58110    0.61078    0.88635    1.000
    Si3737   Si       0.61154    0.67643    0.97878    1.000
    N3738    N        0.61554    0.71958    0.98222    1.000
    Si3739   Si       0.58062    0.74406    0.97889    1.000
    N3740    N        0.58149    0.71657    0.89146    1.000
    N3741    N        0.57838    0.66489    0.95145    1.000
    N3742    N        0.60051    0.82679    0.05719    1.000
    Si3743   Si       0.61034    0.80141    0.02243    1.000
    N3744    N        0.62971    0.76505    0.03332    1.000
    Si3745   Si       0.63084    0.85595    0.04126    1.000
    N3746    N        0.59634    0.76454    0.09301    1.000
    Si3747   Si       0.58198    0.82402    0.09833    1.000
    N3748    N        0.57757    0.78379    0.00015    1.000
    N3749    N        0.59995    0.88303    0.02660    1.000
    N3750    N        0.60951    0.94856    0.08244    1.000
    Si3751   Si       0.59804    0.97791    0.05318    1.000
    N3752    N        0.63635    0.99886    0.04298    1.000
    N3753    N        0.63706    0.94177    0.02034    1.000
    Si3754   Si       0.62073    0.77824    0.12547    1.000
    N3755    N        0.62612    0.80679    0.20052    1.000
    N3756    N        0.60173    0.81675    0.13573    1.000
    N3757    N        0.61572    0.87505    0.16711    1.000
    Si3758   Si       0.60381    0.83428    0.17562    1.000
    Si3759   Si       0.61887    0.76354    0.19546    1.000
    N3760    N        0.57760    0.91351    0.20845    1.000
    N3761    N        0.57755    0.93155    0.14183    1.000
    Si3762   Si       0.61778    0.95218    0.12809    1.000
    N3763    N        0.62786    0.96031    0.17411    1.000
    Si3764   Si       0.60102    0.95160    0.20760    1.000
    Si3765   Si       0.60986    0.84652    0.29803    1.000
    N3766    N        0.61387    0.84697    0.25414    1.000
    N3767    N        0.62267    0.88252    0.32084    1.000
    Si3768   Si       0.59275    0.95931    0.27981    1.000
    Si3769   Si       0.59232    0.91476    0.32237    1.000
    N3770    N        0.61138    0.95311    0.31796    1.000
    Si3771   Si       0.62728    0.97747    0.35013    1.000
    N3772    N        0.62036    0.96096    0.24453    1.000
    Si3773   Si       0.59974    0.76587    0.39290    1.000
    N3774    N        0.60090    0.84081    0.38018    1.000
    Si3775   Si       0.60389    0.77033    0.47000    1.000
    Si3776   Si       0.61681    0.83831    0.47612    1.000
    N3777    N        0.58098    0.84168    0.45337    1.000
    Si3778   Si       0.57819    0.85892    0.41302    1.000
    N3779    N        0.63628    0.78614    0.37779    1.000
    N3780    N        0.63635    0.80016    0.46579    1.000
    N3781    N        0.58774    0.90114    0.42311    1.000
    Si3782   Si       0.61169    0.90704    0.45866    1.000
    N3783    N        0.62000    0.95044    0.38417    1.000
    Si3784   Si       0.58154    0.93296    0.39482    1.000
    N3785    N        0.61117    0.84159    0.51848    1.000
    Si3786   Si       0.61873    0.81441    0.55297    1.000
    N3787    N        0.61543    0.77149    0.54559    1.000
    N3788    N        0.58601    0.82180    0.58154    1.000
    Si3789   Si       0.61907    0.88387    0.52739    1.000
    N3790    N        0.59697    0.88600    0.56492    1.000
    N3791    N        0.60009    0.98024    0.50657    1.000
    N3792    N        0.59922    0.91023    0.49991    1.000
    Si3793   Si       0.63320    0.00135    0.61061    1.000
    Si3794   Si       0.58280    0.82380    0.62505    1.000
    N3795    N        0.58714    0.76655    0.71543    1.000
    Si3796   Si       0.61661    0.79670    0.72183    1.000
    Si3797   Si       0.60353    0.86299    0.68883    1.000
    N3798    N        0.61825    0.80596    0.64281    1.000
    N3799    N        0.59455    0.83424    0.71860    1.000
    Si3800   Si       0.62410    0.76469    0.63099    1.000
    N3801    N        0.57657    0.86053    0.65313    1.000
    N3802    N        0.59337    0.89791    0.71408    1.000
    N3803    N        0.62079    0.95447    0.69427    1.000
    Si3804   Si       0.62836    0.92387    0.72481    1.000
    Si3805   Si       0.59484    0.98456    0.67644    1.000
    N3806    N        0.60272    0.98172    0.63198    1.000
    N3807    N        0.58958    0.86495    0.78841    1.000
    N3808    N        0.62335    0.79403    0.76653    1.000
    Si3809   Si       0.59824    0.79057    0.86065    1.000
    N3810    N        0.58727    0.82950    0.84994    1.000
    Si3811   Si       0.61162    0.75714    0.78910    1.000
    Si3812   Si       0.62889    0.88547    0.79080    1.000
    Si3813   Si       0.59859    0.92558    0.83784    1.000
    N3814    N        0.62505    0.92061    0.76659    1.000
    Si3815   Si       0.62380    0.96150    0.78506    1.000
    N3816    N        0.60322    0.96041    0.86389    1.000
    N3817    N        0.63130    0.89628    0.83477    1.000
    N3818    N        0.58284    0.95138    0.80279    1.000
    Si3819   Si       0.63326    0.98993    0.85116    1.000
    N3820    N        0.61446    0.00360    0.77138    1.000
    N3821    N        0.63025    0.79419    0.89142    1.000
    Si3822   Si       0.61633    0.79437    0.93338    1.000
    N3823    N        0.60260    0.83588    0.94094    1.000
    N3824    N        0.58686    0.76312    0.94140    1.000
    Si3825   Si       0.58852    0.95783    0.90798    1.000
    N3826    N        0.58065    0.93143    0.97919    1.000
    N3827    N        0.62549    0.96026    0.92691    1.000
    Si3828   Si       0.61381    0.91211    0.99890    1.000
    Si3829   Si       0.65238    0.08231    0.08363    1.000
    N3830    N        0.64428    0.03959    0.08956    1.000
    N3831    N        0.68853    0.08126    0.05994    1.000
    N3832    N        0.69444    0.12185    0.99900    1.000
    N3833    N        0.66292    0.10362    0.12182    1.000
    Si3834   Si       0.67757    0.16757    0.01055    1.000
    N3835    N        0.66670    0.20984    0.02184    1.000
    N3836    N        0.67355    0.15128    0.05433    1.000
    Si3837   Si       0.68231    0.18355    0.08145    1.000
    N3838    N        0.64247    0.19603    0.09440    1.000
    Si3839   Si       0.69078    0.24101    0.04049    1.000
    N3840    N        0.64989    0.02899    0.16397    1.000
    N3841    N        0.68462    0.05383    0.22022    1.000
    Si3842   Si       0.64643    0.05395    0.19919    1.000
    Si3843   Si       0.63989    0.11716    0.22795    1.000
    N3844    N        0.63830    0.09529    0.19075    1.000
    N3845    N        0.68066    0.13302    0.23998    1.000
    N3846    N        0.67216    0.16147    0.17964    1.000
    N3847    N        0.64834    0.20718    0.24488    1.000
    N3848    N        0.66541    0.06081    0.31271    1.000
    Si3849   Si       0.65481    0.01958    0.30180    1.000
    Si3850   Si       0.66157    0.13755    0.35168    1.000
    Si3851   Si       0.68625    0.22248    0.25924    1.000
    Si3852   Si       0.68404    0.14872    0.28072    1.000
    N3853    N        0.65076    0.17873    0.36070    1.000
    N3854    N        0.64202    0.15058    0.28445    1.000
    N3855    N        0.69570    0.24304    0.34444    1.000
    N3856    N        0.67302    0.25708    0.28294    1.000
    N3857    N        0.70059    0.19176    0.28573    1.000
    Si3858   Si       0.64657    0.01649    0.42783    1.000
    N3859    N        0.67594    0.11638    0.38718    1.000
    Si3860   Si       0.65719    0.11977    0.48066    1.000
    N3861    N        0.66909    0.05426    0.42484    1.000
    Si3862   Si       0.65184    0.09208    0.41343    1.000
    N3863    N        0.66748    0.08038    0.49286    1.000
    Si3864   Si       0.67401    0.03782    0.49177    1.000
    Si3865   Si       0.69622    0.18574    0.48181    1.000
    N3866    N        0.69118    0.23569    0.47344    1.000
    N3867    N        0.65524    0.18637    0.45723    1.000
    Si3868   Si       0.63528    0.21938    0.37331    1.000
    N3869    N        0.66176    0.23828    0.40197    1.000
    Si3870   Si       0.65987    0.22897    0.44485    1.000
    N3871    N        0.66699    0.02977    0.53370    1.000
    Si3872   Si       0.67126    0.11099    0.57612    1.000
    N3873    N        0.67366    0.08516    0.61254    1.000
    N3874    N        0.66276    0.15212    0.58722    1.000
    N3875    N        0.65699    0.21221    0.59150    1.000
    Si3876   Si       0.68228    0.18574    0.56780    1.000
    Si3877   Si       0.67370    0.24131    0.61777    1.000
    N3878    N        0.68642    0.19715    0.52543    1.000
    Si3879   Si       0.68836    0.24008    0.51701    1.000
    N3880    N        0.65163    0.25871    0.52892    1.000
    Si3881   Si       0.65118    0.12530    0.68479    1.000
    N3882    N        0.66566    0.03568    0.72290    1.000
    Si3883   Si       0.67056    0.02710    0.67859    1.000
    N3884    N        0.64680    0.02808    0.64186    1.000
    Si3885   Si       0.63529    0.06640    0.62120    1.000
    N3886    N        0.69101    0.13334    0.67412    1.000
    Si3887   Si       0.64009    0.24201    0.69044    1.000
    N3888    N        0.63884    0.19917    0.69169    1.000
    N3889    N        0.67795    0.25430    0.71114    1.000
    N3890    N        0.63873    0.14009    0.72388    1.000
    Si3891   Si       0.64146    0.18308    0.73135    1.000
    N3892    N        0.65630    0.09118    0.82849    1.000
    N3893    N        0.67344    0.09700    0.76226    1.000
    Si3894   Si       0.66991    0.06738    0.86183    1.000
    Si3895   Si       0.69167    0.06057    0.74609    1.000
    Si3896   Si       0.69604    0.10922    0.79682    1.000
    Si3897   Si       0.63382    0.11622    0.75915    1.000
    Si3898   Si       0.64372    0.13397    0.82869    1.000
    N3899    N        0.68043    0.14828    0.80832    1.000
    N3900    N        0.68367    0.21281    0.86349    1.000
    Si3901   Si       0.64138    0.24767    0.81927    1.000
    N3902    N        0.66338    0.25000    0.78214    1.000
    N3903    N        0.65870    0.15670    0.86567    1.000
    Si3904   Si       0.64031    0.19749    0.86742    1.000
    Si3905   Si       0.68673    0.23630    0.75044    1.000
    N3906    N        0.67758    0.19308    0.75212    1.000
    Si3907   Si       0.69092    0.25423    0.87201    1.000
    Si3908   Si       0.64351    0.11930    0.96334    1.000
    N3909    N        0.65818    0.07656    0.95539    1.000
    N3910    N        0.68468    0.02434    0.91910    1.000
    Si3911   Si       0.69117    0.06663    0.92716    1.000
    N3912    N        0.69582    0.09332    0.88979    1.000
    N3913    N        0.64145    0.13039    0.92054    1.000
    N3914    N        0.64419    0.00816    0.97080    1.000
    N3915    N        0.65992    0.22993    0.96216    1.000
    N3916    N        0.64097    0.15696    0.98629    1.000
    Si3917   Si       0.64502    0.25407    0.92913    1.000
    Si3918   Si       0.67918    0.13669    0.90072    1.000
    N3919    N        0.66853    0.33663    0.09225    1.000
    N3920    N        0.67353    0.27319    0.06247    1.000
    Si3921   Si       0.68088    0.37630    0.11136    1.000
    Si3922   Si       0.69314    0.30308    0.08569    1.000
    N3923    N        0.67752    0.45308    0.00841    1.000
    N3924    N        0.68210    0.47429    0.07567    1.000
    N3925    N        0.67914    0.40120    0.04936    1.000
    Si3926   Si       0.65547    0.46797    0.04180    1.000
    Si3927   Si       0.65892    0.48605    0.11044    1.000
    Si3928   Si       0.67155    0.40950    0.00610    1.000
    N3929    N        0.64421    0.39974    0.10521    1.000
    N3930    N        0.67751    0.36489    0.15306    1.000
    Si3931   Si       0.64776    0.33403    0.15450    1.000
    N3932    N        0.66258    0.28953    0.15284    1.000
    N3933    N        0.64753    0.26879    0.21801    1.000
    N3934    N        0.69373    0.31982    0.24812    1.000
    Si3935   Si       0.68694    0.49050    0.18202    1.000
    Si3936   Si       0.66028    0.42832    0.22616    1.000
    N3937    N        0.68304    0.50263    0.14077    1.000
    N3938    N        0.67317    0.38765    0.21704    1.000
    N3939    N        0.66625    0.45387    0.19161    1.000
    N3940    N        0.66855    0.30985    0.32265    1.000
    N3941    N        0.66727    0.37083    0.28378    1.000
    Si3942   Si       0.64350    0.33910    0.30049    1.000
    Si3943   Si       0.66421    0.26428    0.32381    1.000
    Si3944   Si       0.66116    0.28991    0.25506    1.000
    N3945    N        0.68935    0.36159    0.36203    1.000
    Si3946   Si       0.64241    0.37148    0.36631    1.000
    Si3947   Si       0.69213    0.36332    0.24860    1.000
    Si3948   Si       0.67144    0.41329    0.29353    1.000
    N3949    N        0.66784    0.48001    0.33419    1.000
    N3950    N        0.68412    0.43815    0.26117    1.000
    Si3951   Si       0.68300    0.33304    0.40343    1.000
    N3952    N        0.67063    0.30687    0.44283    1.000
    N3953    N        0.64075    0.34255    0.39884    1.000
    Si3954   Si       0.64400    0.40723    0.46618    1.000
    N3955    N        0.69025    0.48745    0.43905    1.000
    N3956    N        0.63585    0.44789    0.48269    1.000
    Si3957   Si       0.65056    0.47402    0.45042    1.000
    N3958    N        0.67951    0.40809    0.44423    1.000
    N3959    N        0.67238    0.27913    0.59776    1.000
    Si3960   Si       0.67609    0.35736    0.51813    1.000
    Si3961   Si       0.65414    0.28838    0.55956    1.000
    N3962    N        0.65684    0.32340    0.53660    1.000
    N3963    N        0.69155    0.37684    0.55281    1.000
    N3964    N        0.64848    0.38511    0.50168    1.000
    Si3965   Si       0.65571    0.45817    0.59594    1.000
    Si3966   Si       0.65861    0.39838    0.56907    1.000
    N3967    N        0.67616    0.49569    0.59368    1.000
    N3968    N        0.67306    0.41562    0.60658    1.000
    N3969    N        0.68864    0.48742    0.52310    1.000
    N3970    N        0.64354    0.43848    0.55738    1.000
    Si3971   Si       0.64853    0.50746    0.51214    1.000
    N3972    N        0.65459    0.36324    0.69933    1.000
    Si3973   Si       0.65845    0.29788    0.63471    1.000
    Si3974   Si       0.64780    0.34584    0.73842    1.000
    N3975    N        0.64960    0.25753    0.65154    1.000
    Si3976   Si       0.68904    0.38793    0.69047    1.000
    N3977    N        0.66934    0.42722    0.67660    1.000
    Si3978   Si       0.64469    0.41729    0.64133    1.000
    N3979    N        0.69088    0.49138    0.66292    1.000
    Si3980   Si       0.65428    0.45651    0.70625    1.000
    N3981    N        0.65932    0.34420    0.82150    1.000
    N3982    N        0.66466    0.27779    0.84438    1.000
    Si3983   Si       0.66292    0.32023    0.85844    1.000
    N3984    N        0.68421    0.34172    0.75971    1.000
    N3985    N        0.68410    0.44557    0.85786    1.000
    Si3986   Si       0.65342    0.46142    0.78143    1.000
    Si3987   Si       0.64266    0.45702    0.85719    1.000
    N3988    N        0.64282    0.49985    0.85906    1.000
    N3989    N        0.69204    0.44497    0.78334    1.000
    N3990    N        0.65716    0.50588    0.78739    1.000
    N3991    N        0.63696    0.44225    0.74433    1.000
    N3992    N        0.66716    0.34018    0.93574    1.000
    N3993    N        0.67787    0.27419    0.90777    1.000
    Si3994   Si       0.67498    0.38413    0.93855    1.000
    Si3995   Si       0.68578    0.47339    0.97103    1.000
    N3996    N        0.67347    0.45470    0.93222    1.000
    N3997    N        0.66306    0.50965    0.96971    1.000
    N3998    N        0.69653    0.39117    0.97543    1.000
    Si3999   Si       0.67136    0.61288    0.06587    1.000
    N4000    N        0.64597    0.59391    0.09266    1.000
    Si4001   Si       0.65934    0.55689    0.11462    1.000
    N4002    N        0.68771    0.58065    0.04031    1.000
    N4003    N        0.63820    0.52336    0.09498    1.000
    Si4004   Si       0.69515    0.58578    0.99608    1.000
    N4005    N        0.64934    0.65385    0.06316    1.000
    Si4006   Si       0.66110    0.68686    0.09097    1.000
    N4007    N        0.65357    0.72341    0.07041    1.000
    Si4008   Si       0.67122    0.74894    0.04081    1.000
    N4009    N        0.68582    0.73338    0.00381    1.000
    N4010    N        0.67271    0.52142    0.20703    1.000
    Si4011   Si       0.65614    0.55959    0.19548    1.000
    N4012    N        0.68284    0.57790    0.22438    1.000
    Si4013   Si       0.68722    0.61990    0.22312    1.000
    N4014    N        0.64212    0.56867    0.15360    1.000
    Si4015   Si       0.67394    0.66120    0.15899    1.000
    N4016    N        0.68800    0.69611    0.18218    1.000
    Si4017   Si       0.65586    0.70425    0.21026    1.000
    N4018    N        0.66132    0.63656    0.19197    1.000
    N4019    N        0.65322    0.74697    0.21283    1.000
    N4020    N        0.64691    0.68072    0.13130    1.000
    N4021    N        0.68743    0.53025    0.28226    1.000
    N4022    N        0.64457    0.54788    0.33471    1.000
    Si4023   Si       0.65679    0.51512    0.30750    1.000
    N4024    N        0.63792    0.62664    0.31053    1.000
    Si4025   Si       0.68246    0.61972    0.36599    1.000
    N4026    N        0.68558    0.63115    0.26555    1.000
    Si4027   Si       0.65866    0.71503    0.28559    1.000
    N4028    N        0.67935    0.68469    0.31341    1.000
    Si4029   Si       0.64639    0.65148    0.27231    1.000
    N4030    N        0.64607    0.75002    0.30956    1.000
    N4031    N        0.68043    0.73043    0.36256    1.000
    Si4032   Si       0.64304    0.74887    0.35246    1.000
    N4033    N        0.65578    0.68796    0.24970    1.000
    Si4034   Si       0.64064    0.66562    0.33268    1.000
    N4035    N        0.64243    0.59820    0.37252    1.000
    Si4036   Si       0.67460    0.52914    0.44156    1.000
    N4037    N        0.67489    0.54262    0.39990    1.000
    Si4038   Si       0.64172    0.55623    0.37725    1.000
    N4039    N        0.64565    0.51505    0.47006    1.000
    N4040    N        0.69685    0.56395    0.45296    1.000
    Si4041   Si       0.69450    0.63252    0.43237    1.000
    N4042    N        0.65084    0.63366    0.43141    1.000
    Si4043   Si       0.64497    0.70426    0.46323    1.000
    N4044    N        0.66227    0.65879    0.37323    1.000
    N4045    N        0.67386    0.68081    0.48386    1.000
    Si4046   Si       0.68667    0.69325    0.39119    1.000
    N4047    N        0.66125    0.71131    0.42337    1.000
    N4048    N        0.66103    0.54097    0.54083    1.000
    Si4049   Si       0.65696    0.58331    0.55056    1.000
    N4050    N        0.68593    0.59639    0.58185    1.000
    N4051    N        0.66183    0.60461    0.50984    1.000
    Si4052   Si       0.68956    0.51466    0.55617    1.000
    Si4053   Si       0.67506    0.64724    0.51193    1.000
    Si4054   Si       0.67594    0.72545    0.59762    1.000
    N4055    N        0.66086    0.72173    0.55689    1.000
    Si4056   Si       0.64630    0.74988    0.52539    1.000
    N4057    N        0.65280    0.68655    0.60709    1.000
    N4058    N        0.64102    0.65544    0.53710    1.000
    Si4059   Si       0.63740    0.68734    0.56670    1.000
    Si4060   Si       0.67616    0.58996    0.62315    1.000
    N4061    N        0.65874    0.54935    0.63005    1.000
    N4062    N        0.64693    0.61994    0.63648    1.000
    N4063    N        0.67044    0.52472    0.72122    1.000
    Si4064   Si       0.68776    0.51722    0.62909    1.000
    N4065    N        0.63768    0.63074    0.72684    1.000
    N4066    N        0.67190    0.73116    0.72147    1.000
    N4067    N        0.66181    0.67437    0.68262    1.000
    Si4068   Si       0.66204    0.66128    0.64044    1.000
    Si4069   Si       0.67718    0.65027    0.71644    1.000
    Si4070   Si       0.64536    0.71462    0.69312    1.000
    N4071    N        0.66500    0.57458    0.76702    1.000
    N4072    N        0.67167    0.55492    0.83298    1.000
    Si4073   Si       0.67853    0.53361    0.76334    1.000
    Si4074   Si       0.67862    0.58951    0.80663    1.000
    N4075    N        0.64855    0.62536    0.80044    1.000
    Si4076   Si       0.64086    0.52637    0.82241    1.000
    N4077    N        0.68279    0.66708    0.75715    1.000
    Si4078   Si       0.66163    0.68594    0.86085    1.000
    Si4079   Si       0.67381    0.71097    0.76008    1.000
    Si4080   Si       0.68668    0.65184    0.79751    1.000
    N4081    N        0.68925    0.68290    0.82757    1.000
    Si4082   Si       0.68190    0.55573    0.87481    1.000
    Si4083   Si       0.64757    0.61963    0.88912    1.000
    N4084    N        0.66117    0.54063    0.90907    1.000
    N4085    N        0.66299    0.58707    0.96539    1.000
    Si4086   Si       0.67680    0.54650    0.94765    1.000
    N4087    N        0.68330    0.59836    0.88355    1.000
    Si4088   Si       0.67400    0.73968    0.90012    1.000
    N4089    N        0.64447    0.72252    0.87387    1.000
    Si4090   Si       0.67177    0.67565    0.93376    1.000
    Si4091   Si       0.65266    0.74064    0.97346    1.000
    N4092    N        0.64476    0.65471    0.96165    1.000
    N4093    N        0.66510    0.71956    0.93825    1.000
    N4094    N        0.66276    0.65941    0.89372    1.000
    Si4095   Si       0.68327    0.87438    0.09750    1.000
    N4096    N        0.64210    0.82786    0.00957    1.000
    N4097    N        0.65799    0.79070    0.11230    1.000
    N4098    N        0.65538    0.88397    0.06337    1.000
    Si4099   Si       0.65124    0.98016    0.00535    1.000
    N4100    N        0.67954    0.95391    0.07080    1.000
    Si4101   Si       0.66157    0.99932    0.07909    1.000
    Si4102   Si       0.68523    0.94115    0.11436    1.000
    Si4103   Si       0.64365    0.92696    0.06372    1.000
    N4104    N        0.64902    0.98479    0.11960    1.000
    N4105    N        0.67256    0.85518    0.21269    1.000
    N4106    N        0.67787    0.86148    0.14049    1.000
    Si4107   Si       0.68279    0.76554    0.23840    1.000
    Si4108   Si       0.64519    0.82857    0.23447    1.000
    Si4109   Si       0.66553    0.98792    0.16547    1.000
    N4110    N        0.64842    0.91892    0.12374    1.000
    Si4111   Si       0.66329    0.96844    0.24495    1.000
    N4112    N        0.69058    0.93436    0.24077    1.000
    N4113    N        0.68584    0.90818    0.18105    1.000
    Si4114   Si       0.68843    0.88952    0.23809    1.000
    Si4115   Si       0.65233    0.89337    0.15807    1.000
    N4116    N        0.68070    0.98391    0.20669    1.000
    Si4117   Si       0.66192    0.78808    0.30215    1.000
    N4118    N        0.66160    0.79762    0.25936    1.000
    Si4119   Si       0.66744    0.86725    0.32292    1.000
    N4120    N        0.64355    0.82560    0.31898    1.000
    N4121    N        0.68219    0.87538    0.28040    1.000
    N4122    N        0.66842    0.86003    0.36860    1.000
    Si4123   Si       0.63851    0.82664    0.36558    1.000
    N4124    N        0.66549    0.99435    0.33710    1.000
    N4125    N        0.67312    0.00249    0.26795    1.000
    Si4126   Si       0.69412    0.99186    0.36996    1.000
    Si4127   Si       0.67748    0.79898    0.47889    1.000
    Si4128   Si       0.68151    0.87089    0.46730    1.000
    N4129    N        0.63982    0.87318    0.46167    1.000
    N4130    N        0.63344    0.94428    0.45261    1.000
    Si4131   Si       0.63733    0.97121    0.48703    1.000
    N4132    N        0.68783    0.92073    0.40392    1.000
    N4133    N        0.66612    0.98540    0.40491    1.000
    N4134    N        0.64783    0.00994    0.47136    1.000
    Si4135   Si       0.65283    0.94585    0.41279    1.000
    N4136    N        0.65923    0.82179    0.56321    1.000
    Si4137   Si       0.68196    0.84995    0.53747    1.000
    Si4138   Si       0.68141    0.79953    0.59385    1.000
    N4139    N        0.68070    0.77000    0.51145    1.000
    N4140    N        0.66168    0.76407    0.60909    1.000
    N4141    N        0.68808    0.83823    0.49539    1.000
    N4142    N        0.66110    0.88769    0.53212    1.000
    N4143    N        0.65912    0.97590    0.58852    1.000
    Si4144   Si       0.67418    0.98828    0.54836    1.000
    N4145    N        0.66690    0.95743    0.51743    1.000
    Si4146   Si       0.68695    0.91988    0.51929    1.000
    N4147    N        0.68867    0.81758    0.63319    1.000
    N4148    N        0.64507    0.85805    0.67814    1.000
    Si4149   Si       0.68530    0.77410    0.72196    1.000
    Si4150   Si       0.65604    0.81863    0.66351    1.000
    N4151    N        0.65637    0.79597    0.70062    1.000
    Si4152   Si       0.67939    0.87844    0.69748    1.000
    Si4153   Si       0.63504    0.00572    0.73578    1.000
    N4154    N        0.68657    0.98665    0.67849    1.000
    N4155    N        0.67655    0.93028    0.64584    1.000
    N4156    N        0.66925    0.91815    0.71142    1.000
    Si4157   Si       0.66233    0.95074    0.68092    1.000
    Si4158   Si       0.68777    0.94033    0.74646    1.000
    N4159    N        0.65789    0.85690    0.78088    1.000
    Si4160   Si       0.65842    0.81208    0.78392    1.000
    N4161    N        0.67625    0.80925    0.82523    1.000
    Si4162   Si       0.65994    0.88652    0.86681    1.000
    N4163    N        0.69041    0.80044    0.75740    1.000
    Si4164   Si       0.66821    0.80768    0.87011    1.000
    N4165    N        0.64876    0.96570    0.81766    1.000
    Si4166   Si       0.68374    0.95360    0.84207    1.000
    N4167    N        0.69148    0.91602    0.86238    1.000
    N4168    N        0.67002    0.98038    0.87297    1.000
    N4169    N        0.65894    0.97079    0.74803    1.000
    N4170    N        0.68420    0.84942    0.87160    1.000
    N4171    N        0.64845    0.78167    0.96202    1.000
    Si4172   Si       0.66972    0.81564    0.97943    1.000
    N4173    N        0.67086    0.84197    0.94434    1.000
    N4174    N        0.69172    0.77523    0.88494    1.000
    Si4175   Si       0.63483    0.86605    0.93852    1.000
    Si4176   Si       0.65245    0.92603    0.93348    1.000
    N4177    N        0.68305    0.95453    0.94541    1.000
    N4178    N        0.64351    0.89317    0.90563    1.000
    Si4179   Si       0.65799    0.99072    0.93315    1.000
    N4180    N        0.64052    0.89954    0.96691    1.000
    Si4181   Si       0.71589    0.05043    0.07409    1.000
    N4182    N        0.74148    0.11680    0.11555    1.000
    Si4183   Si       0.70153    0.11642    0.04080    1.000
    N4184    N        0.70511    0.00940    0.06825    1.000
    N4185    N        0.71645    0.05806    0.11927    1.000
    Si4186   Si       0.74607    0.16392    0.01333    1.000
    N4187    N        0.73608    0.14396    0.05004    1.000
    N4188    N        0.71455    0.21398    0.06687    1.000
    N4189    N        0.70427    0.17044    0.11617    1.000
    Si4190   Si       0.74295    0.15423    0.09478    1.000
    N4191    N        0.70991    0.25717    0.00317    1.000
    N4192    N        0.71457    0.18508    0.99154    1.000
    N4193    N        0.74638    0.04933    0.18125    1.000
    Si4194   Si       0.75269    0.03994    0.14052    1.000
    Si4195   Si       0.71948    0.07425    0.20403    1.000
    N4196    N        0.70569    0.10151    0.17489    1.000
    Si4197   Si       0.70477    0.09998    0.13239    1.000
    N4198    N        0.74028    0.10726    0.22517    1.000
    Si4199   Si       0.69696    0.01586    0.23372    1.000
    N4200    N        0.73445    0.16760    0.18425    1.000
    Si4201   Si       0.73350    0.23665    0.19415    1.000
    N4202    N        0.72243    0.23573    0.23584    1.000
    Si4203   Si       0.70624    0.13832    0.20120    1.000
    N4204    N        0.70764    0.22679    0.16042    1.000
    Si4205   Si       0.70381    0.18435    0.15842    1.000
    N4206    N        0.72994    0.07605    0.28800    1.000
    N4207    N        0.72310    0.07462    0.35578    1.000
    Si4208   Si       0.70016    0.08582    0.32092    1.000
    Si4209   Si       0.74539    0.03801    0.36526    1.000
    N4210    N        0.74477    0.01639    0.32943    1.000
    Si4211   Si       0.74708    0.10879    0.26766    1.000
    N4212    N        0.74420    0.13670    0.37233    1.000
    N4213    N        0.69450    0.13215    0.32163    1.000
    Si4214   Si       0.73468    0.14792    0.33127    1.000
    Si4215   Si       0.71823    0.21814    0.31668    1.000
    N4216    N        0.74254    0.19089    0.33858    1.000
    N4217    N        0.74216    0.25059    0.29930    1.000
    Si4218   Si       0.75549    0.25345    0.25985    1.000
    N4219    N        0.71955    0.01910    0.39239    1.000
    Si4220   Si       0.71255    0.04314    0.42965    1.000
    N4221    N        0.73307    0.08201    0.42166    1.000
    N4222    N        0.71300    0.03064    0.47256    1.000
    Si4223   Si       0.71928    0.10574    0.38801    1.000
    Si4224   Si       0.73256    0.24165    0.45883    1.000
    Si4225   Si       0.70069    0.25534    0.38674    1.000
    N4226    N        0.69661    0.14214    0.48597    1.000
    N4227    N        0.74078    0.19899    0.47468    1.000
    N4228    N        0.73025    0.24267    0.41587    1.000
    N4229    N        0.73036    0.04728    0.60215    1.000
    Si4230   Si       0.72470    0.12008    0.51404    1.000
    N4231    N        0.70296    0.10845    0.54716    1.000
    N4232    N        0.72149    0.19500    0.58401    1.000
    N4233    N        0.75507    0.15116    0.53087    1.000
    N4234    N        0.74467    0.09948    0.64395    1.000
    Si4235   Si       0.71100    0.07014    0.63264    1.000
    Si4236   Si       0.74318    0.04835    0.69239    1.000
    N4237    N        0.73179    0.07183    0.72663    1.000
    N4238    N        0.70674    0.04943    0.66894    1.000
    Si4239   Si       0.74909    0.11149    0.73758    1.000
    Si4240   Si       0.73275    0.13573    0.66497    1.000
    N4241    N        0.74912    0.17053    0.64442    1.000
    Si4242   Si       0.74088    0.20588    0.62207    1.000
    N4243    N        0.71080    0.23613    0.63846    1.000
    N4244    N        0.72461    0.09357    0.82613    1.000
    Si4245   Si       0.72620    0.05059    0.82191    1.000
    N4246    N        0.71188    0.04624    0.78121    1.000
    Si4247   Si       0.72963    0.10702    0.86619    1.000
    N4248    N        0.69891    0.03551    0.85057    1.000
    N4249    N        0.72652    0.13352    0.76914    1.000
    N4250    N        0.72985    0.23426    0.75551    1.000
    N4251    N        0.71956    0.19611    0.80931    1.000
    Si4252   Si       0.70386    0.16936    0.77842    1.000
    Si4253   Si       0.74595    0.22640    0.79325    1.000
    N4254    N        0.72568    0.15193    0.86586    1.000
    Si4255   Si       0.69583    0.17596    0.84296    1.000
    Si4256   Si       0.71923    0.11868    0.96366    1.000
    N4257    N        0.72665    0.08043    0.94546    1.000
    N4258    N        0.73382    0.25393    0.87999    1.000
    Si4259   Si       0.73766    0.17592    0.94749    1.000
    N4260    N        0.72380    0.21826    0.93846    1.000
    Si4261   Si       0.70063    0.22532    0.97582    1.000
    N4262    N        0.70610    0.14743    0.93407    1.000
    Si4263   Si       0.73948    0.25423    0.92206    1.000
    N4264    N        0.73102    0.30906    0.06166    1.000
    N4265    N        0.74655    0.37811    0.04438    1.000
    N4266    N        0.71635    0.27928    0.11569    1.000
    Si4267   Si       0.75098    0.28599    0.09080    1.000
    N4268    N        0.73688    0.33126    0.99803    1.000
    Si4269   Si       0.75355    0.33711    0.03674    1.000
    N4270    N        0.71670    0.39550    0.10475    1.000
    N4271    N        0.74038    0.44155    0.04910    1.000
    Si4272   Si       0.71889    0.40618    0.06372    1.000
    Si4273   Si       0.72398    0.48129    0.06534    1.000
    N4274    N        0.74377    0.48957    0.10538    1.000
    Si4275   Si       0.72645    0.31116    0.21894    1.000
    N4276    N        0.72348    0.28065    0.18916    1.000
    N4277    N        0.72814    0.35060    0.20334    1.000
    Si4278   Si       0.70214    0.38218    0.18503    1.000
    Si4279   Si       0.69973    0.27016    0.15407    1.000
    Si4280   Si       0.74944    0.40009    0.13186    1.000
    N4281    N        0.73279    0.41335    0.17052    1.000
    Si4282   Si       0.75204    0.44842    0.18718    1.000
    N4283    N        0.72852    0.48402    0.18516    1.000
    N4284    N        0.74521    0.31712    0.33246    1.000
    Si4285   Si       0.70411    0.32193    0.34543    1.000
    N4286    N        0.72802    0.38907    0.26096    1.000
    Si4287   Si       0.71861    0.39599    0.35369    1.000
    Si4288   Si       0.70770    0.46451    0.32805    1.000
    N4289    N        0.73124    0.47057    0.29068    1.000
    Si4290   Si       0.72929    0.43341    0.26490    1.000
    N4291    N        0.73501    0.48262    0.35779    1.000
    N4292    N        0.69970    0.42188    0.32613    1.000
    Si4293   Si       0.74670    0.50831    0.27605    1.000
    N4294    N        0.69972    0.29963    0.38247    1.000
    N4295    N        0.71298    0.35103    0.42591    1.000
    N4296    N        0.73712    0.28538    0.46690    1.000
    Si4297   Si       0.71027    0.31991    0.45844    1.000
    Si4298   Si       0.74825    0.36871    0.48782    1.000
    N4299    N        0.70952    0.34714    0.49258    1.000
    Si4300   Si       0.73377    0.49570    0.44145    1.000
    N4301    N        0.74938    0.39710    0.45718    1.000
    Si4302   Si       0.71746    0.39365    0.42763    1.000
    N4303    N        0.72933    0.41444    0.39214    1.000
    N4304    N        0.74836    0.50197    0.48247    1.000
    Si4305   Si       0.75351    0.44943    0.38410    1.000
    Si4306   Si       0.73201    0.36843    0.56017    1.000
    N4307    N        0.74203    0.32829    0.57150    1.000
    N4308    N        0.71734    0.26388    0.54118    1.000
    Si4309   Si       0.74935    0.28677    0.55822    1.000
    N4310    N        0.74369    0.39115    0.59436    1.000
    Si4311   Si       0.73139    0.48977    0.52056    1.000
    N4312    N        0.74916    0.45894    0.54360    1.000
    N4313    N        0.75364    0.38669    0.52801    1.000
    N4314    N        0.70444    0.37246    0.65268    1.000
    N4315    N        0.74352    0.27027    0.69293    1.000
    Si4316   Si       0.72253    0.33318    0.66296    1.000
    N4317    N        0.73854    0.34524    0.70207    1.000
    Si4318   Si       0.70356    0.26281    0.67645    1.000
    N4319    N        0.69168    0.30368    0.66212    1.000
    Si4320   Si       0.70898    0.40057    0.62024    1.000
    N4321    N        0.69676    0.46644    0.71919    1.000
    Si4322   Si       0.70826    0.45220    0.67385    1.000
    N4323    N        0.72644    0.43506    0.64003    1.000
    N4324    N        0.75362    0.46385    0.68508    1.000
    N4325    N        0.72044    0.40507    0.71479    1.000
    N4326    N        0.73593    0.33467    0.80991    1.000
    Si4327   Si       0.69624    0.35142    0.79979    1.000
    N4328    N        0.75290    0.26288    0.81739    1.000
    Si4329   Si       0.75246    0.37556    0.82107    1.000
    Si4330   Si       0.70599    0.43220    0.82295    1.000
    N4331    N        0.71269    0.39101    0.81248    1.000
    N4332    N        0.74664    0.44884    0.82687    1.000
    Si4333   Si       0.71393    0.43676    0.74666    1.000
    Si4334   Si       0.69784    0.31150    0.92001    1.000
    N4335    N        0.74195    0.35413    0.93285    1.000
    N4336    N        0.72738    0.28973    0.94490    1.000
    Si4337   Si       0.72635    0.36265    0.89236    1.000
    Si4338   Si       0.73479    0.36993    0.97452    1.000
    Si4339   Si       0.73703    0.28956    0.98689    1.000
    N4340    N        0.70039    0.32974    0.87955    1.000
    Si4341   Si       0.75163    0.47887    0.93798    1.000
    N4342    N        0.72664    0.48442    0.97294    1.000
    N4343    N        0.69807    0.39552    0.90245    1.000
    N4344    N        0.73573    0.45877    0.90047    1.000
    Si4345   Si       0.69847    0.44008    0.89776    1.000
    Si4346   Si       0.71916    0.55846    0.06227    1.000
    N4347    N        0.70354    0.55199    0.10443    1.000
    N4348    N        0.72314    0.51934    0.04175    1.000
    N4349    N        0.71147    0.63020    0.06788    1.000
    Si4350   Si       0.73259    0.51884    0.99919    1.000
    Si4351   Si       0.72496    0.64883    0.10294    1.000
    Si4352   Si       0.72747    0.64521    0.03145    1.000
    N4353    N        0.70410    0.68772    0.09337    1.000
    N4354    N        0.73383    0.68489    0.01404    1.000
    Si4355   Si       0.74152    0.70708    0.10215    1.000
    Si4356   Si       0.72546    0.72357    0.99454    1.000
    Si4357   Si       0.75045    0.51647    0.19720    1.000
    N4358    N        0.73664    0.52455    0.23808    1.000
    Si4359   Si       0.72067    0.52031    0.12823    1.000
    N4360    N        0.74526    0.53982    0.15958    1.000
    N4361    N        0.72760    0.63189    0.21202    1.000
    Si4362   Si       0.69268    0.53904    0.24145    1.000
    N4363    N        0.70637    0.64169    0.14113    1.000
    Si4364   Si       0.72934    0.71083    0.18396    1.000
    Si4365   Si       0.73806    0.63583    0.16924    1.000
    N4366    N        0.73858    0.72573    0.14300    1.000
    N4367    N        0.74306    0.71275    0.22918    1.000
    N4368    N        0.71111    0.61405    0.33559    1.000
    Si4369   Si       0.74493    0.60232    0.36252    1.000
    N4370    N        0.74238    0.59858    0.27376    1.000
    Si4371   Si       0.71713    0.62741    0.29483    1.000
    N4372    N        0.75518    0.53161    0.31152    1.000
    Si4373   Si       0.75280    0.52446    0.35384    1.000
    N4374    N        0.73491    0.56080    0.36973    1.000
    N4375    N        0.69353    0.73606    0.26769    1.000
    Si4376   Si       0.72159    0.68996    0.32342    1.000
    N4377    N        0.73614    0.73118    0.31499    1.000
    N4378    N        0.74574    0.66215    0.30164    1.000
    Si4379   Si       0.74005    0.73288    0.26762    1.000
    Si4380   Si       0.71679    0.75306    0.34952    1.000
    N4381    N        0.72734    0.68476    0.36669    1.000
    N4382    N        0.70593    0.60777    0.40076    1.000
    N4383    N        0.71016    0.62681    0.47234    1.000
    Si4384   Si       0.71360    0.56471    0.40998    1.000
    N4385    N        0.74615    0.53478    0.42626    1.000
    Si4386   Si       0.69763    0.58680    0.48948    1.000
    N4387    N        0.71644    0.73264    0.47002    1.000
    N4388    N        0.71427    0.67182    0.42551    1.000
    Si4389   Si       0.72881    0.75686    0.43296    1.000
    Si4390   Si       0.71546    0.68985    0.46697    1.000
    Si4391   Si       0.75060    0.67252    0.39887    1.000
    N4392    N        0.72969    0.58726    0.51933    1.000
    Si4393   Si       0.72139    0.61896    0.57028    1.000
    N4394    N        0.73318    0.52258    0.55284    1.000
    Si4395   Si       0.74153    0.63011    0.50304    1.000
    Si4396   Si       0.75355    0.56139    0.54620    1.000
    N4397    N        0.75414    0.58900    0.58047    1.000
    N4398    N        0.72944    0.52736    0.62084    1.000
    Si4399   Si       0.73930    0.74712    0.57679    1.000
    N4400    N        0.71824    0.72004    0.60473    1.000
    N4401    N        0.73070    0.72386    0.54072    1.000
    Si4402   Si       0.73979    0.68204    0.54290    1.000
    N4403    N        0.71223    0.64470    0.53513    1.000
    N4404    N        0.74225    0.65980    0.58336    1.000
    Si4405   Si       0.72024    0.75318    0.50884    1.000
    N4406    N        0.74798    0.67793    0.49733    1.000
    Si4407   Si       0.73133    0.68177    0.61763    1.000
    Si4408   Si       0.75228    0.54872    0.73010    1.000
    N4409    N        0.71495    0.63108    0.70531    1.000
    Si4410   Si       0.70615    0.50656    0.70438    1.000
    Si4411   Si       0.72479    0.62669    0.66192    1.000
    Si4412   Si       0.74242    0.55555    0.65274    1.000
    N4413    N        0.73762    0.53667    0.69174    1.000
    N4414    N        0.71198    0.58673    0.64828    1.000
    N4415    N        0.70555    0.65368    0.63645    1.000
    N4416    N        0.71278    0.61879    0.80841    1.000
    N4417    N        0.74830    0.62534    0.86849    1.000
    N4418    N        0.72345    0.53180    0.75809    1.000
    Si4419   Si       0.75062    0.63221    0.82515    1.000
    Si4420   Si       0.72342    0.70645    0.81650    1.000
    N4421    N        0.71140    0.72401    0.77852    1.000
    Si4422   Si       0.73929    0.74496    0.75507    1.000
    N4423    N        0.74966    0.73692    0.83607    1.000
    N4424    N        0.72528    0.55247    0.88226    1.000
    N4425    N        0.71322    0.55080    0.97663    1.000
    Si4426   Si       0.72498    0.59703    0.89023    1.000
    N4427    N        0.74516    0.60149    0.92860    1.000
    N4428    N        0.71755    0.62212    0.99517    1.000
    Si4429   Si       0.73731    0.63390    0.95865    1.000
    N4430    N        0.74268    0.72701    0.95565    1.000
    Si4431   Si       0.72893    0.75327    0.87167    1.000
    N4432    N        0.70984    0.71726    0.88929    1.000
    Si4433   Si       0.73356    0.69962    0.92403    1.000
    N4434    N        0.71448    0.66490    0.94045    1.000
    Si4435   Si       0.73142    0.79083    0.02636    1.000
    N4436    N        0.70572    0.84125    0.08255    1.000
    Si4437   Si       0.74929    0.84582    0.07644    1.000
    N4438    N        0.70037    0.77823    0.05677    1.000
    Si4439   Si       0.69608    0.79985    0.09490    1.000
    N4440    N        0.72740    0.79212    0.12279    1.000
    Si4441   Si       0.71103    0.97326    0.04705    1.000
    N4442    N        0.71083    0.90750    0.10359    1.000
    N4443    N        0.74447    0.94725    0.04855    1.000
    Si4444   Si       0.74724    0.91978    0.08156    1.000
    N4445    N        0.69691    0.97774    0.00581    1.000
    N4446    N        0.72895    0.87163    0.23612    1.000
    N4447    N        0.74153    0.84825    0.17546    1.000
    N4448    N        0.71925    0.78375    0.22472    1.000
    Si4449   Si       0.69958    0.86307    0.17828    1.000
    Si4450   Si       0.75130    0.80012    0.24551    1.000
    N4451    N        0.74735    0.94497    0.18700    1.000
    Si4452   Si       0.74463    0.96038    0.14627    1.000
    Si4453   Si       0.70423    0.94643    0.19888    1.000
    N4454    N        0.70184    0.96488    0.14820    1.000
    N4455    N        0.73658    0.00881    0.24084    1.000
    Si4456   Si       0.72602    0.81682    0.32204    1.000
    N4457    N        0.73398    0.82084    0.27953    1.000
    N4458    N        0.71735    0.85871    0.32796    1.000
    Si4459   Si       0.72591    0.86305    0.28009    1.000
    N4460    N        0.69724    0.78667    0.32857    1.000
    Si4461   Si       0.74870    0.88700    0.33651    1.000
    N4462    N        0.72326    0.96023    0.36117    1.000
    N4463    N        0.75647    0.88988    0.29071    1.000
    Si4464   Si       0.73304    0.82609    0.43718    1.000
    N4465    N        0.70744    0.79250    0.44783    1.000
    N4466    N        0.70343    0.85847    0.43080    1.000
    Si4467   Si       0.69852    0.87931    0.39292    1.000
    N4468    N        0.75071    0.82628    0.39780    1.000
    N4469    N        0.73635    0.75995    0.38879    1.000
    Si4470   Si       0.74168    0.92481    0.47120    1.000
    N4471    N        0.74103    0.96524    0.49098    1.000
    Si4472   Si       0.74815    0.00718    0.48026    1.000
    N4473    N        0.70402    0.90694    0.47983    1.000
    N4474    N        0.75212    0.94092    0.43039    1.000
    N4475    N        0.73841    0.89214    0.38160    1.000
    Si4476   Si       0.73008    0.93458    0.39445    1.000
    N4477    N        0.72186    0.85067    0.55295    1.000
    N4478    N        0.71955    0.78655    0.57776    1.000
    Si4479   Si       0.74526    0.81323    0.55148    1.000
    N4480    N        0.74966    0.78672    0.51435    1.000
    Si4481   Si       0.73616    0.89085    0.57411    1.000
    N4482    N        0.71681    0.91711    0.60218    1.000
    N4483    N        0.71709    0.98680    0.55764    1.000
    N4484    N        0.72484    0.91865    0.54166    1.000
    Si4485   Si       0.74110    0.95834    0.53433    1.000
    Si4486   Si       0.73800    0.00687    0.59011    1.000
    Si4487   Si       0.69296    0.95440    0.60740    1.000
    N4488    N        0.70495    0.86394    0.73028    1.000
    Si4489   Si       0.74007    0.85616    0.70461    1.000
    Si4490   Si       0.72513    0.83811    0.64489    1.000
    N4491    N        0.71238    0.87165    0.66919    1.000
    N4492    N        0.72837    0.76792    0.72020    1.000
    N4493    N        0.74749    0.82057    0.67741    1.000
    N4494    N        0.74856    0.85992    0.61519    1.000
    N4495    N        0.72523    0.98169    0.62251    1.000
    Si4496   Si       0.71304    0.90825    0.64567    1.000
    N4497    N        0.73941    0.93422    0.66840    1.000
    Si4498   Si       0.72748    0.97648    0.66561    1.000
    N4499    N        0.72772    0.84603    0.79328    1.000
    Si4500   Si       0.72999    0.81247    0.76429    1.000
    Si4501   Si       0.71390    0.83655    0.83645    1.000
    N4502    N        0.74013    0.80167    0.84856    1.000
    N4503    N        0.73973    0.86958    0.84925    1.000
    Si4504   Si       0.69852    0.87045    0.77210    1.000
    N4505    N        0.75184    0.77722    0.78041    1.000
    N4506    N        0.72235    0.96481    0.82395    1.000
    Si4507   Si       0.73167    0.93935    0.78913    1.000
    N4508    N        0.72815    0.95833    0.74970    1.000
    N4509    N        0.69773    0.91386    0.78139    1.000
    Si4510   Si       0.75345    0.96588    0.85282    1.000
    Si4511   Si       0.69996    0.85231    0.91276    1.000
    Si4512   Si       0.74178    0.82387    0.96204    1.000
    N4513    N        0.73260    0.82544    0.91879    1.000
    N4514    N        0.71117    0.80700    0.99013    1.000
    N4515    N        0.74972    0.86184    0.97973    1.000
    Si4516   Si       0.70241    0.00878    0.88311    1.000
    Si4517   Si       0.74880    0.89786    0.95304    1.000
    Si4518   Si       0.71730    0.96400    0.96924    1.000
    N4519    N        0.74772    0.99192    0.95584    1.000
    N4520    N        0.74123    0.99180    0.88472    1.000
    Si4521   Si       0.73108    0.90187    0.87738    1.000
    N4522    N        0.74015    0.93007    0.98140    1.000
    N4523    N        0.72097    0.89161    0.91951    1.000
    Si4524   Si       0.78226    0.04322    0.04204    1.000
    N4525    N        0.79827    0.11627    0.07484    1.000
    Si4526   Si       0.77301    0.08940    0.09726    1.000
    N4527    N        0.76006    0.02779    0.01044    1.000
    N4528    N        0.75293    0.06763    0.06504    1.000
    N4529    N        0.77546    0.25174    0.07650    1.000
    N4530    N        0.77456    0.19749    0.02923    1.000
    N4531    N        0.77027    0.18629    0.09778    1.000
    Si4532   Si       0.75775    0.21411    0.06595    1.000
    Si4533   Si       0.80808    0.19461    0.12063    1.000
    Si4534   Si       0.81249    0.18936    0.00920    1.000
    N4535    N        0.81191    0.14360    0.00805    1.000
    N4536    N        0.78762    0.06366    0.13109    1.000
    Si4537   Si       0.78303    0.11524    0.22001    1.000
    N4538    N        0.80466    0.10112    0.18553    1.000
    Si4539   Si       0.80945    0.06066    0.17007    1.000
    Si4540   Si       0.77818    0.17891    0.18838    1.000
    N4541    N        0.79691    0.15721    0.22067    1.000
    N4542    N        0.77417    0.22143    0.19203    1.000
    Si4543   Si       0.81001    0.23318    0.21588    1.000
    N4544    N        0.80474    0.16878    0.15433    1.000
    N4545    N        0.78853    0.07599    0.32229    1.000
    N4546    N        0.78964    0.02726    0.27427    1.000
    Si4547   Si       0.79885    0.11116    0.29964    1.000
    Si4548   Si       0.76213    0.04864    0.30270    1.000
    N4549    N        0.79042    0.09692    0.25797    1.000
    Si4550   Si       0.81085    0.07452    0.35813    1.000
    N4551    N        0.76172    0.13497    0.30075    1.000
    N4552    N        0.77011    0.24945    0.36172    1.000
    N4553    N        0.79627    0.23778    0.25595    1.000
    Si4554   Si       0.77938    0.20948    0.35009    1.000
    N4555    N        0.75335    0.09692    0.48997    1.000
    Si4556   Si       0.76479    0.09897    0.44786    1.000
    Si4557   Si       0.79145    0.03620    0.42412    1.000
    N4558    N        0.78468    0.04690    0.38122    1.000
    N4559    N        0.80233    0.07414    0.44591    1.000
    Si4560   Si       0.78424    0.14215    0.38895    1.000
    N4561    N        0.79455    0.23807    0.43287    1.000
    N4562    N        0.79565    0.18270    0.37977    1.000
    N4563    N        0.77745    0.13609    0.42987    1.000
    N4564    N        0.80737    0.16738    0.49035    1.000
    N4565    N        0.77223    0.08551    0.55490    1.000
    N4566    N        0.76988    0.02530    0.51432    1.000
    Si4567   Si       0.78623    0.12698    0.55283    1.000
    Si4568   Si       0.76955    0.05894    0.58616    1.000
    N4569    N        0.78185    0.01669    0.58135    1.000
    Si4570   Si       0.77482    0.06912    0.51409    1.000
    N4571    N        0.79849    0.06620    0.61660    1.000
    Si4572   Si       0.76822    0.18074    0.50174    1.000
    N4573    N        0.77848    0.20817    0.53355    1.000
    N4574    N        0.77931    0.15251    0.58767    1.000
    N4575    N        0.78049    0.21329    0.60309    1.000
    Si4576   Si       0.80370    0.24853    0.60842    1.000
    Si4577   Si       0.76015    0.18518    0.56670    1.000
    Si4578   Si       0.79659    0.01445    0.68532    1.000
    N4579    N        0.78526    0.05736    0.68371    1.000
    Si4580   Si       0.78424    0.08569    0.65158    1.000
    N4581    N        0.80923    0.11977    0.66310    1.000
    N4582    N        0.78876    0.22914    0.72149    1.000
    Si4583   Si       0.79508    0.15040    0.69102    1.000
    N4584    N        0.75601    0.13628    0.70324    1.000
    N4585    N        0.80819    0.18689    0.66642    1.000
    Si4586   Si       0.75757    0.25710    0.73215    1.000
    Si4587   Si       0.79306    0.17139    0.62546    1.000
    Si4588   Si       0.80833    0.22682    0.68295    1.000
    N4589    N        0.77891    0.09098    0.76449    1.000
    N4590    N        0.76830    0.04159    0.81037    1.000
    Si4591   Si       0.80352    0.01620    0.81808    1.000
    N4592    N        0.77483    0.01600    0.75194    1.000
    Si4593   Si       0.75632    0.05292    0.76834    1.000
    Si4594   Si       0.79929    0.17837    0.82141    1.000
    N4595    N        0.79898    0.14493    0.85397    1.000
    N4596    N        0.77492    0.20090    0.85275    1.000
    N4597    N        0.78699    0.21201    0.78817    1.000
    Si4598   Si       0.76688    0.24317    0.85406    1.000
    N4599    N        0.80646    0.25693    0.86387    1.000
    N4600    N        0.81044    0.14945    0.79120    1.000
    Si4601   Si       0.79931    0.19771    0.74878    1.000
    N4602    N        0.78194    0.03907    0.91094    1.000
    Si4603   Si       0.76672    0.07689    0.92598    1.000
    N4604    N        0.79401    0.08703    0.95894    1.000
    N4605    N        0.75989    0.10116    0.89306    1.000
    Si4606   Si       0.79817    0.12888    0.97114    1.000
    N4607    N        0.78283    0.25454    0.92607    1.000
    N4608    N        0.76978    0.17514    0.91706    1.000
    Si4609   Si       0.76631    0.16381    0.87517    1.000
    N4610    N        0.80317    0.20002    0.96871    1.000
    N4611    N        0.75641    0.14249    0.97314    1.000
    Si4612   Si       0.79908    0.24393    0.96474    1.000
    Si4613   Si       0.81136    0.17937    0.92956    1.000
    N4614    N        0.79279    0.32229    0.03946    1.000
    Si4615   Si       0.80635    0.30561    0.99942    1.000
    N4616    N        0.78637    0.29937    0.11465    1.000
    Si4617   Si       0.81065    0.26571    0.10192    1.000
    N4618    N        0.78083    0.42064    0.10958    1.000
    N4619    N        0.80617    0.41531    0.04358    1.000
    Si4620   Si       0.76731    0.41329    0.02671    1.000
    Si4621   Si       0.77654    0.46318    0.11667    1.000
    Si4622   Si       0.76752    0.36009    0.18922    1.000
    N4623    N        0.79271    0.32400    0.18472    1.000
    Si4624   Si       0.79488    0.33322    0.14213    1.000
    N4625    N        0.76445    0.36240    0.14573    1.000
    N4626    N        0.78899    0.38404    0.21902    1.000
    N4627    N        0.78555    0.46379    0.16022    1.000
    Si4628   Si       0.81602    0.49247    0.17089    1.000
    N4629    N        0.75490    0.44573    0.23027    1.000
    N4630    N        0.79837    0.28309    0.30349    1.000
    Si4631   Si       0.79249    0.31033    0.26950    1.000
    Si4632   Si       0.77444    0.34744    0.32710    1.000
    N4633    N        0.78385    0.34965    0.28490    1.000
    Si4634   Si       0.76151    0.27634    0.32803    1.000
    Si4635   Si       0.77204    0.38470    0.25958    1.000
    N4636    N        0.80980    0.34636    0.35455    1.000
    N4637    N        0.75738    0.38546    0.33838    1.000
    N4638    N        0.75817    0.29539    0.24705    1.000
    Si4639   Si       0.78938    0.45339    0.25607    1.000
    N4640    N        0.79141    0.49508    0.26549    1.000
    Si4641   Si       0.78836    0.41486    0.32521    1.000
    N4642    N        0.77603    0.42285    0.28454    1.000
    N4643    N        0.79081    0.43681    0.36658    1.000
    N4644    N        0.78070    0.29975    0.40300    1.000
    N4645    N        0.77948    0.34132    0.48121    1.000
    Si4646   Si       0.77205    0.29809    0.48783    1.000
    N4647    N        0.81109    0.28967    0.46759    1.000
    Si4648   Si       0.76957    0.26014    0.40413    1.000
    Si4649   Si       0.77535    0.43212    0.45103    1.000
    N4650    N        0.76008    0.46395    0.42525    1.000
    N4651    N        0.79191    0.43760    0.49293    1.000
    N4652    N        0.81230    0.42414    0.42982    1.000
    Si4653   Si       0.77304    0.32444    0.60185    1.000
    N4654    N        0.78111    0.28707    0.52787    1.000
    N4655    N        0.78445    0.28519    0.58980    1.000
    N4656    N        0.80270    0.35610    0.59875    1.000
    Si4657   Si       0.77372    0.42505    0.53127    1.000
    Si4658   Si       0.78807    0.39676    0.59627    1.000
    N4659    N        0.80387    0.41649    0.56166    1.000
    N4660    N        0.77998    0.48007    0.61974    1.000
    Si4661   Si       0.75299    0.50525    0.59160    1.000
    Si4662   Si       0.77631    0.28826    0.66788    1.000
    N4663    N        0.79867    0.30687    0.70054    1.000
    Si4664   Si       0.76690    0.32144    0.72517    1.000
    N4665    N        0.79082    0.35690    0.73997    1.000
    N4666    N        0.75823    0.31696    0.64216    1.000
    N4667    N        0.79904    0.25487    0.65273    1.000
    Si4668   Si       0.75875    0.38259    0.71314    1.000
    Si4669   Si       0.77491    0.44730    0.71678    1.000
    N4670    N        0.78832    0.40964    0.69947    1.000
    N4671    N        0.79514    0.41671    0.63528    1.000
    Si4672   Si       0.76798    0.44826    0.64466    1.000
    N4673    N        0.81139    0.46774    0.72402    1.000
    N4674    N        0.79929    0.31475    0.82186    1.000
    N4675    N        0.76289    0.29288    0.75672    1.000
    Si4676   Si       0.76318    0.30216    0.80013    1.000
    N4677    N        0.75771    0.37818    0.86439    1.000
    Si4678   Si       0.81218    0.33254    0.85890    1.000
    N4679    N        0.80426    0.43777    0.86719    1.000
    N4680    N        0.80260    0.47565    0.79451    1.000
    N4681    N        0.78332    0.39611    0.79820    1.000
    Si4682   Si       0.77625    0.43993    0.79458    1.000
    N4683    N        0.78119    0.49996    0.86027    1.000
    Si4684   Si       0.76469    0.46154    0.86576    1.000
    Si4685   Si       0.80959    0.49694    0.75735    1.000
    N4686    N        0.75610    0.44364    0.75446    1.000
    N4687    N        0.79547    0.32141    0.89685    1.000
    Si4688   Si       0.78544    0.34850    0.92967    1.000
    N4689    N        0.80191    0.33378    0.96661    1.000
    N4690    N        0.77746    0.27283    0.98911    1.000
    Si4691   Si       0.80746    0.27907    0.90064    1.000
    N4692    N        0.79845    0.38932    0.92298    1.000
    Si4693   Si       0.79365    0.39849    0.88062    1.000
    N4694    N        0.76614    0.39982    0.98458    1.000
    N4695    N        0.78776    0.45478    0.94419    1.000
    Si4696   Si       0.79670    0.41402    0.95730    1.000
    Si4697   Si       0.78884    0.54203    0.03856    1.000
    Si4698   Si       0.78913    0.60383    0.05289    1.000
    N4699    N        0.76062    0.57067    0.05535    1.000
    N4700    N        0.77589    0.52347    0.00048    1.000
    N4701    N        0.77196    0.64016    0.03660    1.000
    N4702    N        0.76406    0.73854    0.08472    1.000
    Si4703   Si       0.78261    0.74276    0.04439    1.000
    Si4704   Si       0.77737    0.67365    0.00977    1.000
    N4705    N        0.80100    0.70639    0.02737    1.000
    N4706    N        0.76352    0.67017    0.11004    1.000
    N4707    N        0.75056    0.75310    0.01696    1.000
    Si4708   Si       0.80242    0.61309    0.13018    1.000
    Si4709   Si       0.77517    0.57144    0.16964    1.000
    N4710    N        0.77563    0.58500    0.21047    1.000
    N4711    N        0.79455    0.51965    0.20029    1.000
    N4712    N        0.76272    0.60736    0.14720    1.000
    Si4713   Si       0.75828    0.61458    0.23595    1.000
    Si4714   Si       0.80575    0.52787    0.24117    1.000
    N4715    N        0.81487    0.57597    0.15175    1.000
    N4716    N        0.75932    0.67519    0.17879    1.000
    Si4717   Si       0.78688    0.67892    0.14580    1.000
    N4718    N        0.78259    0.64993    0.24250    1.000
    Si4719   Si       0.77797    0.68702    0.21794    1.000
    N4720    N        0.77768    0.59372    0.33374    1.000
    Si4721   Si       0.76742    0.57095    0.29926    1.000
    N4722    N        0.79966    0.56087    0.27114    1.000
    Si4723   Si       0.78582    0.66006    0.28570    1.000
    N4724    N        0.80749    0.69834    0.28656    1.000
    N4725    N        0.79078    0.52593    0.37587    1.000
    Si4726   Si       0.78816    0.54402    0.41552    1.000
    Si4727   Si       0.78413    0.52509    0.48726    1.000
    Si4728   Si       0.80949    0.62260    0.40146    1.000
    N4729    N        0.81089    0.53379    0.45238    1.000
    N4730    N        0.81203    0.58118    0.41229    1.000
    N4731    N        0.76844    0.63368    0.38801    1.000
    Si4732   Si       0.79674    0.74195    0.41727    1.000
    N4733    N        0.77916    0.69923    0.41802    1.000
    N4734    N        0.81151    0.69954    0.48510    1.000
    N4735    N        0.78797    0.55394    0.51918    1.000
    Si4736   Si       0.77822    0.60148    0.61582    1.000
    N4737    N        0.78514    0.62947    0.51129    1.000
    N4738    N        0.80816    0.62750    0.59657    1.000
    N4739    N        0.79378    0.51895    0.57660    1.000
    Si4740   Si       0.80775    0.59360    0.51357    1.000
    N4741    N        0.78655    0.68676    0.55057    1.000
    Si4742   Si       0.78947    0.66759    0.59180    1.000
    Si4743   Si       0.79152    0.67223    0.50994    1.000
    N4744    N        0.78150    0.75239    0.58630    1.000
    Si4745   Si       0.80731    0.72278    0.56699    1.000
    N4746    N        0.77005    0.58724    0.71850    1.000
    N4747    N        0.78617    0.56497    0.64100    1.000
    N4748    N        0.76699    0.62664    0.64895    1.000
    N4749    N        0.78936    0.53091    0.74006    1.000
    Si4750   Si       0.80851    0.56841    0.72217    1.000
    Si4751   Si       0.75553    0.62858    0.72224    1.000
    N4752    N        0.77381    0.68674    0.62900    1.000
    N4753    N        0.77173    0.66379    0.70275    1.000
    Si4754   Si       0.78487    0.67956    0.74191    1.000
    Si4755   Si       0.78683    0.66408    0.66427    1.000
    Si4756   Si       0.80942    0.73417    0.73852    1.000
    N4757    N        0.78442    0.60306    0.81644    1.000
    Si4758   Si       0.80387    0.61869    0.77998    1.000
    Si4759   Si       0.80626    0.57707    0.84217    1.000
    N4760    N        0.77391    0.64267    0.75979    1.000
    Si4761   Si       0.78940    0.69906    0.83552    1.000
    N4762    N        0.80370    0.65866    0.85042    1.000
    N4763    N        0.77156    0.71845    0.75184    1.000
    N4764    N        0.75317    0.67649    0.81824    1.000
    N4765    N        0.76894    0.51577    0.92521    1.000
    N4766    N        0.78962    0.56665    0.88100    1.000
    Si4767   Si       0.78507    0.58670    0.91983    1.000
    Si4768   Si       0.79306    0.52584    0.95946    1.000
    Si4769   Si       0.76459    0.53228    0.88337    1.000
    N4770    N        0.80440    0.62397    0.91140    1.000
    N4771    N        0.80224    0.56923    0.95634    1.000
    Si4772   Si       0.80626    0.71066    0.91010    1.000
    Si4773   Si       0.78035    0.64944    0.88712    1.000
    N4774    N        0.77054    0.68779    0.90558    1.000
    N4775    N        0.77557    0.65214    0.96904    1.000
    N4776    N        0.80767    0.74193    0.93947    1.000
    Si4777   Si       0.81350    0.64564    0.94848    1.000
    Si4778   Si       0.76842    0.76095    0.94216    1.000
    N4779    N        0.77379    0.84029    0.11149    1.000
    Si4780   Si       0.80127    0.81481    0.03821    1.000
    Si4781   Si       0.76939    0.86612    0.01812    1.000
    N4782    N        0.75876    0.82190    0.04043    1.000
    N4783    N        0.81033    0.84073    0.00380    1.000
    N4784    N        0.75735    0.88354    0.05876    1.000
    N4785    N        0.79618    0.90147    0.01118    1.000
    Si4786   Si       0.77110    0.93620    0.01515    1.000
    Si4787   Si       0.78886    0.98322    0.10094    1.000
    N4788    N        0.76948    0.93965    0.11262    1.000
    N4789    N        0.79393    0.96987    0.00536    1.000
    N4790    N        0.79326    0.01299    0.07077    1.000
    N4791    N        0.78606    0.78522    0.14401    1.000
    Si4792   Si       0.76409    0.86278    0.21305    1.000
    N4793    N        0.78132    0.82735    0.22956    1.000
    Si4794   Si       0.75909    0.76030    0.12385    1.000
    Si4795   Si       0.75567    0.81952    0.14390    1.000
    N4796    N        0.79911    0.97278    0.22560    1.000
    Si4797   Si       0.78701    0.93611    0.20196    1.000
    N4798    N        0.79414    0.89507    0.21669    1.000
    N4799    N        0.75953    0.99914    0.13005    1.000
    Si4800   Si       0.80896    0.92792    0.12636    1.000
    N4801    N        0.78540    0.86456    0.34774    1.000
    Si4802   Si       0.78890    0.78581    0.30267    1.000
    N4803    N        0.77018    0.76539    0.26978    1.000
    N4804    N        0.76214    0.79698    0.33610    1.000
    N4805    N        0.81006    0.82302    0.29198    1.000
    N4806    N        0.77466    0.92747    0.33818    1.000
    Si4807   Si       0.78249    0.92457    0.29276    1.000
    N4808    N        0.76361    0.96412    0.28878    1.000
    Si4809   Si       0.77096    0.99108    0.25547    1.000
    N4810    N        0.79261    0.98302    0.35540    1.000
    Si4811   Si       0.80854    0.94283    0.36183    1.000
    Si4812   Si       0.75618    0.97280    0.33389    1.000
    N4813    N        0.77117    0.76337    0.44524    1.000
    N4814    N        0.80405    0.77227    0.38833    1.000
    N4815    N        0.76695    0.82886    0.46357    1.000
    Si4816   Si       0.78030    0.78984    0.48007    1.000
    N4817    N        0.79835    0.87329    0.42117    1.000
    Si4818   Si       0.77211    0.86397    0.38949    1.000
    Si4819   Si       0.76493    0.79210    0.37883    1.000
    Si4820   Si       0.79569    0.86051    0.46334    1.000
    N4821    N        0.77777    0.89714    0.48149    1.000
    Si4822   Si       0.78972    0.96825    0.43569    1.000
    N4823    N        0.77113    0.00726    0.44495    1.000
    N4824    N        0.78132    0.82014    0.57612    1.000
    Si4825   Si       0.78680    0.85734    0.59729    1.000
    Si4826   Si       0.80430    0.78815    0.59578    1.000
    N4827    N        0.77885    0.89292    0.57041    1.000
    N4828    N        0.78305    0.95984    0.54314    1.000
    Si4829   Si       0.80501    0.92703    0.56085    1.000
    Si4830   Si       0.79379    0.00191    0.54115    1.000
    N4831    N        0.79733    0.76907    0.71488    1.000
    Si4832   Si       0.76268    0.79225    0.70703    1.000
    Si4833   Si       0.80042    0.85935    0.72975    1.000
    N4834    N        0.76385    0.82827    0.73593    1.000
    N4835    N        0.76823    0.88662    0.71400    1.000
    Si4836   Si       0.75949    0.98147    0.73041    1.000
    N4837    N        0.78959    0.95185    0.71456    1.000
    N4838    N        0.80504    0.91795    0.65773    1.000
    N4839    N        0.80546    0.99645    0.64758    1.000
    Si4840   Si       0.77454    0.92004    0.68860    1.000
    N4841    N        0.75306    0.00254    0.69220    1.000
    N4842    N        0.80176    0.85638    0.81295    1.000
    Si4843   Si       0.76370    0.77722    0.82270    1.000
    Si4844   Si       0.76052    0.87187    0.81033    1.000
    N4845    N        0.80654    0.78353    0.82292    1.000
    N4846    N        0.78956    0.97689    0.83066    1.000
    N4847    N        0.76527    0.91605    0.80326    1.000
    Si4848   Si       0.80123    0.94107    0.80848    1.000
    N4849    N        0.79738    0.82175    0.87755    1.000
    N4850    N        0.77684    0.79915    0.96081    1.000
    Si4851   Si       0.75833    0.80952    0.88770    1.000
    N4852    N        0.75983    0.76781    0.89890    1.000
    N4853    N        0.78804    0.90053    0.93310    1.000
    Si4854   Si       0.78028    0.00358    0.98273    1.000
    N4855    N        0.80396    0.97229    0.91935    1.000
    Si4856   Si       0.76873    0.99883    0.91740    1.000
    Si4857   Si       0.79722    0.93273    0.90392    1.000
    N4858    N        0.76323    0.93053    0.87791    1.000
    N4859    N        0.85571    0.11762    0.05479    1.000
    Si4860   Si       0.81844    0.10941    0.03536    1.000
    N4861    N        0.81065    0.06842    0.02138    1.000
    Si4862   Si       0.83357    0.13535    0.08889    1.000
    N4863    N        0.83862    0.22053    0.02843    1.000
    N4864    N        0.83672    0.17862    0.08967    1.000
    Si4865   Si       0.85959    0.20289    0.06181    1.000
    Si4866   Si       0.85794    0.25743    0.01101    1.000
    N4867    N        0.83846    0.11713    0.12549    1.000
    N4868    N        0.85213    0.05446    0.15449    1.000
    N4869    N        0.81416    0.04106    0.21158    1.000
    Si4870   Si       0.86966    0.08379    0.12952    1.000
    N4871    N        0.85898    0.14246    0.18942    1.000
    Si4872   Si       0.82626    0.13348    0.16472    1.000
    N4873    N        0.84526    0.20529    0.21857    1.000
    N4874    N        0.82377    0.23510    0.12819    1.000
    Si4875   Si       0.84045    0.16339    0.22669    1.000
    Si4876   Si       0.85411    0.24914    0.15668    1.000
    N4877    N        0.84010    0.04282    0.35143    1.000
    Si4878   Si       0.85449    0.12405    0.35387    1.000
    N4879    N        0.84006    0.11888    0.31345    1.000
    N4880    N        0.85000    0.06738    0.26673    1.000
    Si4881   Si       0.81047    0.05869    0.25157    1.000
    Si4882   Si       0.86481    0.10815    0.27923    1.000
    Si4883   Si       0.81645    0.01412    0.37067    1.000
    Si4884   Si       0.84536    0.20261    0.35033    1.000
    N4885    N        0.86510    0.16500    0.36700    1.000
    N4886    N        0.81318    0.21266    0.32204    1.000
    Si4887   Si       0.81637    0.24425    0.29312    1.000
    N4888    N        0.85753    0.25619    0.28709    1.000
    N4889    N        0.86785    0.14808    0.25606    1.000
    N4890    N        0.81547    0.11393    0.37301    1.000
    Si4891   Si       0.84256    0.07103    0.46974    1.000
    N4892    N        0.85088    0.02554    0.47294    1.000
    Si4893   Si       0.86302    0.02265    0.43281    1.000
    N4894    N        0.82616    0.00940    0.41234    1.000
    N4895    N        0.87331    0.09911    0.49108    1.000
    N4896    N        0.87231    0.06432    0.43054    1.000
    N4897    N        0.84089    0.18298    0.43498    1.000
    N4898    N        0.84476    0.22869    0.38682    1.000
    N4899    N        0.83443    0.22481    0.49471    1.000
    Si4900   Si       0.84358    0.18430    0.47840    1.000
    Si4901   Si       0.81512    0.20733    0.41098    1.000
    Si4902   Si       0.82741    0.25163    0.46089    1.000
    N4903    N        0.86891    0.25689    0.44855    1.000
    Si4904   Si       0.84965    0.09426    0.52855    1.000
    N4905    N        0.85298    0.01787    0.60101    1.000
    N4906    N        0.81863    0.07436    0.50716    1.000
    N4907    N        0.82976    0.12606    0.54911    1.000
    Si4908   Si       0.86530    0.02372    0.55897    1.000
    N4909    N        0.86627    0.06762    0.55933    1.000
    Si4910   Si       0.81242    0.02322    0.61336    1.000
    Si4911   Si       0.85231    0.15342    0.57550    1.000
    Si4912   Si       0.86279    0.22314    0.58314    1.000
    N4913    N        0.85071    0.19084    0.55472    1.000
    Si4914   Si       0.81984    0.21704    0.53515    1.000
    N4915    N        0.82945    0.24878    0.56741    1.000
    N4916    N        0.83860    0.15980    0.61745    1.000
    Si4917   Si       0.84961    0.12529    0.64671    1.000
    N4918    N        0.82988    0.01002    0.71317    1.000
    N4919    N        0.85356    0.22390    0.62496    1.000
    Si4920   Si       0.87306    0.24975    0.65507    1.000
    Si4921   Si       0.86705    0.22010    0.72658    1.000
    Si4922   Si       0.84929    0.18944    0.65082    1.000
    N4923    N        0.86804    0.15641    0.67170    1.000
    N4924    N        0.85280    0.22389    0.68553    1.000
    N4925    N        0.81214    0.16302    0.72844    1.000
    N4926    N        0.83296    0.08899    0.82011    1.000
    Si4927   Si       0.86167    0.05039    0.81050    1.000
    N4928    N        0.83362    0.02459    0.78735    1.000
    Si4929   Si       0.83060    0.11499    0.85502    1.000
    N4930    N        0.82393    0.02668    0.85456    1.000
    N4931    N        0.84552    0.11145    0.74937    1.000
    Si4932   Si       0.81462    0.10571    0.78361    1.000
    Si4933   Si       0.83053    0.22959    0.79396    1.000
    N4934    N        0.83892    0.20140    0.82584    1.000
    Si4935   Si       0.84338    0.15627    0.75921    1.000
    Si4936   Si       0.83457    0.22337    0.86687    1.000
    N4937    N        0.84307    0.20547    0.75874    1.000
    N4938    N        0.86752    0.14121    0.85425    1.000
    N4939    N        0.81945    0.01926    0.96895    1.000
    Si4940   Si       0.82012    0.04809    0.89298    1.000
    N4941    N        0.85185    0.01877    0.90790    1.000
    N4942    N        0.83206    0.08866    0.89138    1.000
    Si4943   Si       0.84851    0.10380    0.92951    1.000
    N4944    N        0.85797    0.08104    0.96626    1.000
    Si4945   Si       0.82257    0.06043    0.97939    1.000
    N4946    N        0.83774    0.25850    0.97084    1.000
    N4947    N        0.83674    0.20210    0.90466    1.000
    N4948    N        0.82677    0.14033    0.94049    1.000
    N4949    N        0.84372    0.28286    0.08081    1.000
    Si4950   Si       0.83161    0.31562    0.05631    1.000
    N4951    N        0.85338    0.35252    0.05283    1.000
    N4952    N        0.84607    0.30123    0.01518    1.000
    N4953    N        0.85240    0.40528    0.10089    1.000
    Si4954   Si       0.83925    0.50259    0.09511    1.000
    Si4955   Si       0.81830    0.42548    0.08468    1.000
    N4956    N        0.81462    0.46743    0.09532    1.000
    N4957    N        0.86859    0.32444    0.19720    1.000
    N4958    N        0.83511    0.34729    0.13859    1.000
    Si4959   Si       0.82789    0.30541    0.20080    1.000
    N4960    N        0.83106    0.26275    0.19188    1.000
    Si4961   Si       0.87082    0.32481    0.15398    1.000
    N4962    N        0.85273    0.37858    0.24505    1.000
    N4963    N        0.86977    0.28536    0.13807    1.000
    Si4964   Si       0.85614    0.38619    0.13915    1.000
    Si4965   Si       0.82900    0.40250    0.21628    1.000
    N4966    N        0.84966    0.40895    0.17747    1.000
    N4967    N        0.85316    0.48308    0.18969    1.000
    Si4968   Si       0.84191    0.37704    0.34696    1.000
    Si4969   Si       0.86477    0.28494    0.25526    1.000
    N4970    N        0.82773    0.30585    0.24314    1.000
    N4971    N        0.82933    0.40250    0.31471    1.000
    Si4972   Si       0.84951    0.40826    0.27686    1.000
    N4973    N        0.82680    0.43459    0.24679    1.000
    Si4974   Si       0.81857    0.33196    0.46566    1.000
    N4975    N        0.85075    0.30338    0.38400    1.000
    N4976    N        0.82216    0.35037    0.42651    1.000
    Si4977   Si       0.81369    0.32471    0.39179    1.000
    N4978    N        0.85183    0.33662    0.49149    1.000
    Si4979   Si       0.83967    0.39018    0.42633    1.000
    N4980    N        0.85742    0.46736    0.39273    1.000
    N4981    N        0.86074    0.47276    0.46680    1.000
    Si4982   Si       0.82639    0.43719    0.39054    1.000
    Si4983   Si       0.82765    0.45928    0.49363    1.000
    N4984    N        0.84874    0.39931    0.38491    1.000
    N4985    N        0.84215    0.32118    0.55616    1.000
    Si4986   Si       0.84496    0.35296    0.58550    1.000
    N4987    N        0.87097    0.33611    0.61579    1.000
    Si4988   Si       0.81428    0.28905    0.55398    1.000
    N4989    N        0.84997    0.46759    0.58630    1.000
    Si4990   Si       0.84697    0.43097    0.56152    1.000
    N4991    N        0.85629    0.43890    0.52078    1.000
    Si4992   Si       0.81848    0.49414    0.60531    1.000
    N4993    N        0.86674    0.39265    0.57679    1.000
    N4994    N        0.81716    0.50040    0.50375    1.000
    Si4995   Si       0.82094    0.34266    0.70836    1.000
    N4996    N        0.86038    0.32943    0.72303    1.000
    N4997    N        0.83058    0.36112    0.67126    1.000
    Si4998   Si       0.86443    0.33488    0.65907    1.000
    N4999    N        0.86856    0.29029    0.66972    1.000
    Si5000   Si       0.84242    0.43752    0.71944    1.000
    N5001    N        0.85396    0.42867    0.67790    1.000
    Si5002   Si       0.81960    0.40332    0.66811    1.000
    N5003    N        0.84502    0.34554    0.78449    1.000
    Si5004   Si       0.84108    0.31011    0.80987    1.000
    N5005    N        0.85395    0.31583    0.85106    1.000
    N5006    N        0.85005    0.26926    0.79514    1.000
    N5007    N        0.82552    0.37456    0.86351    1.000
    Si5008   Si       0.81582    0.37792    0.77268    1.000
    N5009    N        0.85422    0.47863    0.84304    1.000
    N5010    N        0.83973    0.40760    0.75293    1.000
    Si5011   Si       0.81499    0.49708    0.83014    1.000
    Si5012   Si       0.86829    0.37957    0.87343    1.000
    N5013    N        0.84906    0.28670    0.91041    1.000
    Si5014   Si       0.86868    0.27487    0.94605    1.000
    N5015    N        0.83136    0.50703    0.95242    1.000
    Si5016   Si       0.84723    0.44944    0.87499    1.000
    Si5017   Si       0.83070    0.46400    0.94571    1.000
    N5018    N        0.86239    0.46103    0.91464    1.000
    N5019    N        0.83620    0.42903    0.97099    1.000
    Si5020   Si       0.84544    0.56681    0.06551    1.000
    N5021    N        0.81826    0.53147    0.06882    1.000
    N5022    N        0.86344    0.56917    0.10490    1.000
    N5023    N        0.81600    0.57912    0.02852    1.000
    N5024    N        0.81306    0.61167    0.08742    1.000
    Si5025   Si       0.84378    0.64279    0.08786    1.000
    Si5026   Si       0.84193    0.69490    0.04315    1.000
    N5027    N        0.83285    0.68222    0.08426    1.000
    Si5028   Si       0.84135    0.71731    0.11263    1.000
    N5029    N        0.86677    0.68372    0.00698    1.000
    N5030    N        0.87147    0.63641    0.05490    1.000
    N5031    N        0.86985    0.72768    0.05263    1.000
    Si5032   Si       0.87013    0.51743    0.21062    1.000
    Si5033   Si       0.84750    0.55117    0.14273    1.000
    N5034    N        0.83005    0.51297    0.13631    1.000
    N5035    N        0.87029    0.54882    0.17991    1.000
    N5036    N        0.84965    0.53339    0.24466    1.000
    N5037    N        0.81619    0.71065    0.21750    1.000
    Si5038   Si       0.83855    0.71922    0.18093    1.000
    Si5039   Si       0.85587    0.64729    0.16208    1.000
    N5040    N        0.81672    0.71127    0.14543    1.000
    N5041    N        0.81575    0.64769    0.15086    1.000
    N5042    N        0.84399    0.57223    0.31983    1.000
    Si5043   Si       0.84399    0.56375    0.27561    1.000
    Si5044   Si       0.81884    0.60670    0.33248    1.000
    N5045    N        0.86542    0.59913    0.26231    1.000
    N5046    N        0.87226    0.51013    0.33415    1.000
    N5047    N        0.83275    0.63247    0.36537    1.000
    N5048    N        0.81833    0.63470    0.29993    1.000
    Si5049   Si       0.85741    0.63704    0.28330    1.000
    Si5050   Si       0.86109    0.66238    0.35326    1.000
    Si5051   Si       0.83283    0.72432    0.31356    1.000
    N5052    N        0.85250    0.70500    0.34663    1.000
    Si5053   Si       0.83718    0.70242    0.25479    1.000
    N5054    N        0.86397    0.73008    0.28090    1.000
    N5055    N        0.86034    0.66795    0.24920    1.000
    Si5056   Si       0.84692    0.51436    0.46641    1.000
    Si5057   Si       0.84428    0.57189    0.44104    1.000
    N5058    N        0.82962    0.59485    0.47534    1.000
    Si5059   Si       0.85142    0.62932    0.46209    1.000
    N5060    N        0.86736    0.52829    0.42963    1.000
    N5061    N        0.87118    0.65449    0.48800    1.000
    N5062    N        0.83433    0.72672    0.42981    1.000
    N5063    N        0.82337    0.64826    0.43396    1.000
    Si5064   Si       0.81421    0.69006    0.44308    1.000
    Si5065   Si       0.84374    0.60762    0.58362    1.000
    N5066    N        0.83918    0.59127    0.54280    1.000
    N5067    N        0.85615    0.52801    0.55043    1.000
    N5068    N        0.85151    0.58503    0.61935    1.000
    Si5069   Si       0.81532    0.52327    0.54058    1.000
    N5070    N        0.83622    0.74148    0.54086    1.000
    N5071    N        0.82975    0.69445    0.59581    1.000
    Si5072   Si       0.86794    0.67726    0.57950    1.000
    Si5073   Si       0.83489    0.73590    0.49779    1.000
    N5074    N        0.84259    0.51698    0.63262    1.000
    N5075    N        0.83743    0.55950    0.69174    1.000
    Si5076   Si       0.82879    0.55792    0.64732    1.000
    N5077    N        0.85568    0.63187    0.72204    1.000
    Si5078   Si       0.84673    0.69860    0.63622    1.000
    N5079    N        0.86590    0.73531    0.64950    1.000
    Si5080   Si       0.84782    0.67297    0.70815    1.000
    N5081    N        0.82965    0.67302    0.66763    1.000
    N5082    N        0.82711    0.69441    0.74043    1.000
    N5083    N        0.84391    0.59702    0.85157    1.000
    Si5084   Si       0.84299    0.55477    0.78481    1.000
    N5085    N        0.82445    0.58355    0.75930    1.000
    N5086    N        0.84995    0.51705    0.76292    1.000
    N5087    N        0.82102    0.54085    0.82022    1.000
    Si5088   Si       0.86597    0.61048    0.75974    1.000
    Si5089   Si       0.83809    0.63855    0.83628    1.000
    N5090    N        0.84109    0.63890    0.79060    1.000
    Si5091   Si       0.84564    0.68297    0.78154    1.000
    Si5092   Si       0.85368    0.70665    0.85668    1.000
    N5093    N        0.81995    0.70967    0.80488    1.000
    Si5094   Si       0.83315    0.75205    0.80850    1.000
    N5095    N        0.86918    0.66673    0.84701    1.000
    N5096    N        0.86845    0.74395    0.83555    1.000
    N5097    N        0.81367    0.71965    0.86832    1.000
    N5098    N        0.83592    0.75821    0.76531    1.000
    N5099    N        0.83865    0.62719    0.97576    1.000
    Si5100   Si       0.86347    0.53211    0.94230    1.000
    Si5101   Si       0.82889    0.58660    0.98632    1.000
    N5102    N        0.86480    0.56269    0.97559    1.000
    N5103    N        0.87520    0.55344    0.90685    1.000
    N5104    N        0.83280    0.68132    0.93158    1.000
    Si5105   Si       0.85163    0.76780    0.06450    1.000
    N5106    N        0.82469    0.83516    0.06803    1.000
    Si5107   Si       0.86428    0.84147    0.05446    1.000
    N5108    N        0.86644    0.86784    0.02161    1.000
    Si5109   Si       0.83203    0.87976    0.00002    1.000
    Si5110   Si       0.81645    0.84789    0.10761    1.000
    N5111    N        0.83948    0.76079    0.10562    1.000
    N5112    N        0.81372    0.77358    0.04450    1.000
    N5113    N        0.82712    0.96362    0.10589    1.000
    N5114    N        0.81972    0.88953    0.11328    1.000
    N5115    N        0.84420    0.78884    0.24243    1.000
    Si5116   Si       0.82945    0.78308    0.14119    1.000
    N5117    N        0.83911    0.82500    0.13721    1.000
    N5118    N        0.84822    0.76074    0.17436    1.000
    Si5119   Si       0.86600    0.78141    0.20679    1.000
    N5120    N        0.84802    0.85874    0.24337    1.000
    Si5121   Si       0.83141    0.00227    0.21739    1.000
    Si5122   Si       0.85436    0.94641    0.17988    1.000
    N5123    N        0.85953    0.92787    0.21923    1.000
    Si5124   Si       0.83227    0.89978    0.23888    1.000
    N5125    N        0.85211    0.99037    0.18258    1.000
    N5126    N        0.81345    0.93672    0.16773    1.000
    Si5127   Si       0.83621    0.78194    0.35967    1.000
    N5128    N        0.84065    0.82480    0.35585    1.000
    Si5129   Si       0.86535    0.85957    0.36023    1.000
    N5130    N        0.85101    0.87668    0.32167    1.000
    Si5131   Si       0.82073    0.82407    0.24974    1.000
    N5132    N        0.82105    0.76410    0.32210    1.000
    Si5133   Si       0.81875    0.84738    0.32496    1.000
    Si5134   Si       0.85362    0.91701    0.30480    1.000
    N5135    N        0.84478    0.94287    0.33920    1.000
    N5136    N        0.86249    0.99721    0.25051    1.000
    N5137    N        0.82040    0.91816    0.27688    1.000
    Si5138   Si       0.85256    0.80328    0.48140    1.000
    N5139    N        0.83456    0.84378    0.47649    1.000
    Si5140   Si       0.86587    0.87251    0.47379    1.000
    N5141    N        0.81949    0.77477    0.48747    1.000
    N5142    N        0.87397    0.78739    0.44527    1.000
    N5143    N        0.85951    0.88478    0.39206    1.000
    N5144    N        0.84316    0.90715    0.45966    1.000
    Si5145   Si       0.82931    0.90151    0.41788    1.000
    N5146    N        0.81053    0.93987    0.40507    1.000
    N5147    N        0.81177    0.96620    0.47453    1.000
    Si5148   Si       0.81174    0.92507    0.48629    1.000
    Si5149   Si       0.84379    0.98941    0.49443    1.000
    N5150    N        0.84207    0.80028    0.58038    1.000
    Si5151   Si       0.85868    0.82989    0.60746    1.000
    Si5152   Si       0.86237    0.77454    0.55358    1.000
    N5153    N        0.82796    0.91626    0.52499    1.000
    N5154    N        0.81730    0.94460    0.59730    1.000
    N5155    N        0.83593    0.00468    0.53482    1.000
    N5156    N        0.82578    0.85837    0.61724    1.000
    Si5157   Si       0.83247    0.78909    0.73435    1.000
    N5158    N        0.82517    0.86358    0.69284    1.000
    Si5159   Si       0.85314    0.77668    0.65981    1.000
    N5160    N        0.86111    0.78505    0.70181    1.000
    N5161    N        0.81666    0.78409    0.63745    1.000
    Si5162   Si       0.82855    0.88168    0.65243    1.000
    Si5163   Si       0.81849    0.95488    0.63783    1.000
    Si5164   Si       0.82097    0.93351    0.73786    1.000
    Si5165   Si       0.86178    0.88717    0.70549    1.000
    N5166    N        0.86241    0.96103    0.64607    1.000
    N5167    N        0.86111    0.92976    0.72243    1.000
    N5168    N        0.85580    0.83041    0.85331    1.000
    N5169    N        0.86918    0.86212    0.79268    1.000
    Si5170   Si       0.81483    0.82332    0.83726    1.000
    Si5171   Si       0.83123    0.88259    0.79579    1.000
    N5172    N        0.83297    0.82977    0.74599    1.000
    Si5173   Si       0.81721    0.00290    0.75440    1.000
    N5174    N        0.83394    0.91632    0.82216    1.000
    Si5175   Si       0.85772    0.92156    0.85860    1.000
    Si5176   Si       0.86149    0.00457    0.86762    1.000
    N5177    N        0.81518    0.96153    0.77032    1.000
    N5178    N        0.81757    0.89373    0.75604    1.000
    Si5179   Si       0.83861    0.81765    0.89375    1.000
    N5180    N        0.83099    0.84103    0.93054    1.000
    N5181    N        0.85154    0.79252    0.96875    1.000
    N5182    N        0.85225    0.77719    0.90125    1.000
    Si5183   Si       0.81703    0.81803    0.96717    1.000
    Si5184   Si       0.84851    0.75938    0.94018    1.000
    N5185    N        0.87083    0.96279    0.94090    1.000
    Si5186   Si       0.82732    0.88329    0.92792    1.000
    N5187    N        0.84691    0.89813    0.96339    1.000
    N5188    N        0.83503    0.91094    0.89346    1.000
    Si5189   Si       0.83823    0.99302    0.93920    1.000
    N5190    N        0.90318    0.07406    0.02493    1.000
    Si5191   Si       0.89193    0.09472    0.05981    1.000
    Si5192   Si       0.90029    0.02580    0.08256    1.000
    N5193    N        0.88294    0.06565    0.09259    1.000
    N5194    N        0.92393    0.11925    0.07315    1.000
    Si5195   Si       0.92636    0.12964    0.11482    1.000
    N5196    N        0.88486    0.22801    0.08694    1.000
    N5197    N        0.89755    0.18354    0.04556    1.000
    Si5198   Si       0.91262    0.16937    0.00828    1.000
    Si5199   Si       0.91729    0.19765    0.08160    1.000
    N5200    N        0.91431    0.17174    0.11534    1.000
    N5201    N        0.90008    0.25769    0.99607    1.000
    N5202    N        0.90175    0.10918    0.14363    1.000
    N5203    N        0.91209    0.03283    0.17935    1.000
    N5204    N        0.91513    0.10009    0.21119    1.000
    Si5205   Si       0.89910    0.12751    0.18212    1.000
    Si5206   Si       0.87550    0.01902    0.15831    1.000
    Si5207   Si       0.92672    0.05812    0.21200    1.000
    N5208    N        0.88745    0.22233    0.16693    1.000
    Si5209   Si       0.88284    0.22373    0.21094    1.000
    N5210    N        0.91024    0.20532    0.24105    1.000
    Si5211   Si       0.91893    0.19492    0.15200    1.000
    N5212    N        0.90882    0.10085    0.28512    1.000
    N5213    N        0.89574    0.03928    0.31109    1.000
    Si5214   Si       0.88216    0.05189    0.34956    1.000
    Si5215   Si       0.87773    0.03341    0.27156    1.000
    N5216    N        0.91297    0.04320    0.25001    1.000
    N5217    N        0.87993    0.09245    0.36533    1.000
    Si5218   Si       0.92559    0.00948    0.32768    1.000
    Si5219   Si       0.90920    0.18129    0.34677    1.000
    Si5220   Si       0.90608    0.16865    0.26535    1.000
    N5221    N        0.88375    0.21562    0.33436    1.000
    Si5222   Si       0.89097    0.25273    0.31370    1.000
    N5223    N        0.92079    0.16517    0.30682    1.000
    N5224    N        0.92601    0.24259    0.29212    1.000
    Si5225   Si       0.92650    0.24347    0.24930    1.000
    N5226    N        0.91091    0.02208    0.36855    1.000
    Si5227   Si       0.89545    0.09513    0.40799    1.000
    Si5228   Si       0.89932    0.13121    0.47511    1.000
    N5229    N        0.89057    0.13204    0.42976    1.000
    Si5230   Si       0.87455    0.16999    0.41026    1.000
    N5231    N        0.90135    0.20295    0.40583    1.000
    N5232    N        0.88017    0.16545    0.48871    1.000
    Si5233   Si       0.88004    0.24099    0.40791    1.000
    Si5234   Si       0.88513    0.08501    0.59401    1.000
    N5235    N        0.92311    0.06304    0.60043    1.000
    N5236    N        0.88912    0.12860    0.58264    1.000
    N5237    N        0.90032    0.24085    0.57663    1.000
    Si5238   Si       0.92378    0.15187    0.58733    1.000
    Si5239   Si       0.92992    0.23136    0.61032    1.000
    N5240    N        0.92379    0.18849    0.61100    1.000
    Si5241   Si       0.87301    0.02384    0.70657    1.000
    Si5242   Si       0.88170    0.09164    0.73989    1.000
    N5243    N        0.90993    0.12403    0.72609    1.000
    Si5244   Si       0.88907    0.06756    0.66498    1.000
    N5245    N        0.88161    0.02429    0.66456    1.000
    N5246    N        0.87983    0.06585    0.70739    1.000
    N5247    N        0.86709    0.08888    0.63506    1.000
    N5248    N        0.91582    0.24193    0.65168    1.000
    Si5249   Si       0.90193    0.15884    0.69863    1.000
    N5250    N        0.90014    0.19289    0.72435    1.000
    N5251    N        0.88746    0.07002    0.77857    1.000
    N5252    N        0.88535    0.02363    0.83743    1.000
    N5253    N        0.91493    0.19245    0.83908    1.000
    Si5254   Si       0.91466    0.23455    0.84754    1.000
    N5255    N        0.88357    0.15652    0.78178    1.000
    Si5256   Si       0.92280    0.14897    0.76180    1.000
    Si5257   Si       0.87810    0.17240    0.82438    1.000
    N5258    N        0.87740    0.23445    0.86868    1.000
    N5259    N        0.89031    0.11284    0.91647    1.000
    Si5260   Si       0.89543    0.09118    0.98488    1.000
    N5261    N        0.92909    0.07604    0.96119    1.000
    Si5262   Si       0.87844    0.21302    0.90724    1.000
    N5263    N        0.89906    0.17585    0.91208    1.000
    N5264    N        0.91949    0.19331    0.97253    1.000
    Si5265   Si       0.91295    0.15631    0.94752    1.000
    N5266    N        0.89869    0.13512    0.98362    1.000
    Si5267   Si       0.89720    0.14146    0.88465    1.000
    N5268    N        0.89479    0.24439    0.93102    1.000
    Si5269   Si       0.92110    0.23540    0.96506    1.000
    N5270    N        0.90929    0.32593    0.02252    1.000
    Si5271   Si       0.88475    0.26954    0.09911    1.000
    N5272    N        0.91588    0.37852    0.06997    1.000
    N5273    N        0.92702    0.27722    0.10557    1.000
    Si5274   Si       0.86872    0.33977    0.01321    1.000
    Si5275   Si       0.91074    0.44779    0.03736    1.000
    N5276    N        0.90026    0.48842    0.02308    1.000
    Si5277   Si       0.91213    0.47489    0.11210    1.000
    N5278    N        0.91889    0.44800    0.08009    1.000
    N5279    N        0.88017    0.49814    0.08970    1.000
    N5280    N        0.87962    0.41783    0.03144    1.000
    Si5281   Si       0.87338    0.39098    0.06628    1.000
    N5282    N        0.89501    0.36217    0.14410    1.000
    N5283    N        0.91808    0.36557    0.23879    1.000
    Si5284   Si       0.87847    0.34547    0.23435    1.000
    N5285    N        0.89165    0.26274    0.22966    1.000
    N5286    N        0.90299    0.45131    0.15084    1.000
    N5287    N        0.90983    0.50310    0.22045    1.000
    N5288    N        0.89408    0.43688    0.21782    1.000
    Si5289   Si       0.92153    0.46737    0.23936    1.000
    Si5290   Si       0.87164    0.44596    0.18121    1.000
    Si5291   Si       0.91041    0.40739    0.24406    1.000
    Si5292   Si       0.89777    0.32874    0.30881    1.000
    N5293    N        0.89642    0.29187    0.33131    1.000
    N5294    N        0.87988    0.35980    0.33487    1.000
    N5295    N        0.88567    0.31840    0.26821    1.000
    Si5296   Si       0.92104    0.36574    0.35077    1.000
    N5297    N        0.89463    0.41800    0.28406    1.000
    N5298    N        0.91146    0.45032    0.34512    1.000
    Si5299   Si       0.88390    0.47926    0.36212    1.000
    Si5300   Si       0.92698    0.44193    0.30532    1.000
    N5301    N        0.92310    0.47903    0.28199    1.000
    Si5302   Si       0.89276    0.30248    0.37453    1.000
    N5303    N        0.91045    0.27102    0.39957    1.000
    Si5304   Si       0.89822    0.28144    0.46796    1.000
    N5305    N        0.90336    0.32139    0.45181    1.000
    Si5306   Si       0.88634    0.35538    0.47547    1.000
    N5307    N        0.91457    0.33831    0.38549    1.000
    N5308    N        0.92054    0.42807    0.48522    1.000
    N5309    N        0.92076    0.49009    0.45901    1.000
    Si5310   Si       0.88833    0.47901    0.42381    1.000
    Si5311   Si       0.91002    0.41038    0.44691    1.000
    N5312    N        0.91186    0.43936    0.41518    1.000
    N5313    N        0.91246    0.50281    0.38963    1.000
    N5314    N        0.87317    0.38772    0.45103    1.000
    N5315    N        0.88821    0.28423    0.50982    1.000
    Si5316   Si       0.90965    0.32710    0.60172    1.000
    Si5317   Si       0.91136    0.26766    0.54382    1.000
    N5318    N        0.90717    0.30791    0.56279    1.000
    N5319    N        0.90575    0.36237    0.51380    1.000
    Si5320   Si       0.87888    0.32238    0.52999    1.000
    Si5321   Si       0.88111    0.49593    0.56616    1.000
    N5322    N        0.90465    0.47952    0.53563    1.000
    Si5323   Si       0.90946    0.40006    0.58615    1.000
    Si5324   Si       0.88867    0.45728    0.49905    1.000
    N5325    N        0.93167    0.41787    0.55087    1.000
    N5326    N        0.90119    0.35250    0.67353    1.000
    Si5327   Si       0.88621    0.29560    0.70823    1.000
    Si5328   Si       0.91294    0.37941    0.70697    1.000
    N5329    N        0.87896    0.26143    0.73366    1.000
    N5330    N        0.92985    0.29542    0.69810    1.000
    N5331    N        0.92471    0.41576    0.68853    1.000
    N5332    N        0.91221    0.42801    0.62180    1.000
    N5333    N        0.91197    0.48033    0.65651    1.000
    Si5334   Si       0.89736    0.43652    0.66148    1.000
    N5335    N        0.87834    0.45676    0.73903    1.000
    N5336    N        0.90060    0.36557    0.84843    1.000
    N5337    N        0.90936    0.31056    0.76127    1.000
    Si5338   Si       0.89788    0.26890    0.77483    1.000
    Si5339   Si       0.88029    0.34461    0.75808    1.000
    N5340    N        0.91518    0.26677    0.81815    1.000
    N5341    N        0.89812    0.38325    0.74797    1.000
    N5342    N        0.91010    0.49837    0.78728    1.000
    Si5343   Si       0.91137    0.40592    0.83620    1.000
    N5344    N        0.89428    0.43071    0.80213    1.000
    Si5345   Si       0.89337    0.47186    0.82129    1.000
    Si5346   Si       0.88147    0.41935    0.76323    1.000
    Si5347   Si       0.88603    0.49828    0.75077    1.000
    N5348    N        0.87995    0.42107    0.86587    1.000
    N5349    N        0.87717    0.35294    0.90953    1.000
    Si5350   Si       0.92066    0.29821    0.99183    1.000
    N5351    N        0.91669    0.30168    0.88693    1.000
    N5352    N        0.89399    0.30807    0.95862    1.000
    Si5353   Si       0.89696    0.35108    0.94927    1.000
    N5354    N        0.87397    0.36973    0.98167    1.000
    Si5355   Si       0.87457    0.31383    0.88870    1.000
    Si5356   Si       0.90175    0.46343    0.92799    1.000
    N5357    N        0.90405    0.43346    0.96215    1.000
    Si5358   Si       0.87392    0.41402    0.98660    1.000
    Si5359   Si       0.90119    0.51679    0.05497    1.000
    N5360    N        0.87987    0.55253    0.04168    1.000
    Si5361   Si       0.89665    0.56857    0.00551    1.000
    Si5362   Si       0.89536    0.59920    0.11243    1.000
    N5363    N        0.92485    0.60885    0.08232    1.000
    N5364    N        0.90569    0.61127    0.00258    1.000
    Si5365   Si       0.91495    0.64336    0.05814    1.000
    Si5366   Si       0.90185    0.71718    0.07893    1.000
    N5367    N        0.92431    0.67974    0.07920    1.000
    Si5368   Si       0.88467    0.72473    0.00430    1.000
    N5369    N        0.93123    0.74943    0.07502    1.000
    Si5370   Si       0.89136    0.58532    0.18974    1.000
    N5371    N        0.91389    0.58951    0.15105    1.000
    N5372    N        0.91403    0.57440    0.22420    1.000
    N5373    N        0.87086    0.62262    0.19490    1.000
    Si5374   Si       0.88437    0.65976    0.21475    1.000
    N5375    N        0.88465    0.71390    0.11913    1.000
    N5376    N        0.89521    0.75399    0.22420    1.000
    Si5377   Si       0.90327    0.69709    0.15300    1.000
    N5378    N        0.92733    0.65984    0.21372    1.000
    N5379    N        0.86956    0.63490    0.12213    1.000
    N5380    N        0.87002    0.68735    0.18073    1.000
    N5381    N        0.90736    0.55372    0.29622    1.000
    Si5382   Si       0.90863    0.58467    0.26544    1.000
    Si5383   Si       0.88131    0.55102    0.33214    1.000
    N5384    N        0.89697    0.56712    0.36838    1.000
    N5385    N        0.88160    0.64582    0.31736    1.000
    Si5386   Si       0.90243    0.71475    0.29930    1.000
    N5387    N        0.91679    0.71961    0.34106    1.000
    Si5388   Si       0.92352    0.64652    0.30856    1.000
    N5389    N        0.92092    0.75326    0.28514    1.000
    N5390    N        0.92544    0.68237    0.28242    1.000
    N5391    N        0.87517    0.60216    0.43518    1.000
    Si5392   Si       0.91946    0.60405    0.43934    1.000
    Si5393   Si       0.90000    0.54239    0.40341    1.000
    Si5394   Si       0.91231    0.53313    0.47082    1.000
    N5395    N        0.87337    0.54059    0.48976    1.000
    N5396    N        0.92430    0.55841    0.43570    1.000
    Si5397   Si       0.88527    0.72158    0.37116    1.000
    N5398    N        0.90439    0.73342    0.41258    1.000
    N5399    N        0.89266    0.67143    0.38184    1.000
    N5400    N        0.87557    0.72720    0.48202    1.000
    Si5401   Si       0.87326    0.74304    0.44221    1.000
    N5402    N        0.90525    0.57543    0.54546    1.000
    Si5403   Si       0.91092    0.61226    0.56786    1.000
    N5404    N        0.90235    0.51827    0.59622    1.000
    N5405    N        0.92346    0.58755    0.60416    1.000
    Si5406   Si       0.92255    0.55091    0.57749    1.000
    N5407    N        0.87601    0.63590    0.57774    1.000
    Si5408   Si       0.86980    0.56253    0.52695    1.000
    Si5409   Si       0.91812    0.72877    0.55203    1.000
    N5410    N        0.89031    0.69608    0.54619    1.000
    Si5411   Si       0.88900    0.69076    0.50021    1.000
    N5412    N        0.88706    0.68501    0.61956    1.000
    Si5413   Si       0.88211    0.55593    0.69847    1.000
    N5414    N        0.90257    0.58914    0.71904    1.000
    N5415    N        0.89445    0.55113    0.65561    1.000
    Si5416   Si       0.89356    0.59004    0.63543    1.000
    N5417    N        0.89962    0.62570    0.66062    1.000
    N5418    N        0.89942    0.51981    0.71521    1.000
    Si5419   Si       0.88711    0.51147    0.63571    1.000
    Si5420   Si       0.89911    0.63169    0.70564    1.000
    N5421    N        0.89211    0.67946    0.70988    1.000
    Si5422   Si       0.92550    0.70556    0.70299    1.000
    Si5423   Si       0.90536    0.72114    0.63706    1.000
    N5424    N        0.92142    0.74822    0.70652    1.000
    Si5425   Si       0.91587    0.65979    0.63918    1.000
    N5426    N        0.91230    0.57397    0.84718    1.000
    Si5427   Si       0.91316    0.59737    0.80829    1.000
    N5428    N        0.87847    0.57892    0.78897    1.000
    N5429    N        0.90609    0.62848    0.76635    1.000
    Si5430   Si       0.87780    0.58221    0.87374    1.000
    N5431    N        0.88893    0.69379    0.78718    1.000
    Si5432   Si       0.89635    0.73287    0.80339    1.000
    Si5433   Si       0.91886    0.66258    0.78971    1.000
    Si5434   Si       0.90467    0.64992    0.86526    1.000
    N5435    N        0.92677    0.63730    0.82871    1.000
    N5436    N        0.93061    0.75908    0.80191    1.000
    Si5437   Si       0.91703    0.54536    0.91878    1.000
    N5438    N        0.88950    0.61877    0.89232    1.000
    Si5439   Si       0.91692    0.62835    0.92413    1.000
    N5440    N        0.90148    0.50950    0.94391    1.000
    Si5441   Si       0.91745    0.50493    0.98486    1.000
    N5442    N        0.87657    0.71395    0.89400    1.000
    Si5443   Si       0.87650    0.64472    0.98753    1.000
    N5444    N        0.87279    0.72683    0.95994    1.000
    N5445    N        0.89499    0.65766    0.94986    1.000
    Si5446   Si       0.87413    0.69517    0.93274    1.000
    Si5447   Si       0.88087    0.75729    0.87606    1.000
    N5448    N        0.88675    0.85965    0.08644    1.000
    N5449    N        0.89826    0.76933    0.00927    1.000
    Si5450   Si       0.90875    0.82311    0.09502    1.000
    N5451    N        0.88310    0.79958    0.06488    1.000
    Si5452   Si       0.92135    0.78243    0.04836    1.000
    Si5453   Si       0.90725    0.87567    0.00644    1.000
    Si5454   Si       0.90528    0.89986    0.07993    1.000
    Si5455   Si       0.89141    0.96225    0.04001    1.000
    N5456    N        0.88648    0.93848    0.07672    1.000
    N5457    N        0.88129    0.00073    0.05392    1.000
    N5458    N        0.92599    0.89140    0.04292    1.000
    N5459    N        0.88741    0.00263    0.11810    1.000
    N5460    N        0.87396    0.94609    0.00555    1.000
    Si5461   Si       0.87087    0.96500    0.10826    1.000
    N5462    N        0.88520    0.82111    0.19840    1.000
    N5463    N        0.90742    0.81681    0.13804    1.000
    N5464    N        0.92035    0.86973    0.23671    1.000
    Si5465   Si       0.88822    0.84119    0.23809    1.000
    N5466    N        0.89377    0.87593    0.16956    1.000
    Si5467   Si       0.87495    0.83825    0.15959    1.000
    Si5468   Si       0.91016    0.91116    0.14926    1.000
    N5469    N        0.87892    0.93846    0.14474    1.000
    N5470    N        0.92231    0.96606    0.23133    1.000
    Si5471   Si       0.88231    0.95774    0.24453    1.000
    N5472    N        0.90057    0.81096    0.26611    1.000
    N5473    N        0.90395    0.84229    0.35636    1.000
    Si5474   Si       0.91066    0.79801    0.36814    1.000
    Si5475   Si       0.88304    0.76822    0.26237    1.000
    N5476    N        0.87814    0.76853    0.36328    1.000
    N5477    N        0.88613    0.93824    0.28310    1.000
    Si5478   Si       0.92415    0.93329    0.30431    1.000
    N5479    N        0.92736    0.90792    0.34088    1.000
    N5480    N        0.93439    0.79974    0.40476    1.000
    Si5481   Si       0.91083    0.81149    0.44028    1.000
    N5482    N        0.89813    0.84992    0.45612    1.000
    Si5483   Si       0.92202    0.84882    0.49419    1.000
    Si5484   Si       0.92418    0.00084    0.40465    1.000
    Si5485   Si       0.90681    0.97084    0.46816    1.000
    N5486    N        0.89270    0.99200    0.43148    1.000
    N5487    N        0.92437    0.93354    0.45703    1.000
    N5488    N        0.88883    0.85754    0.59318    1.000
    Si5489   Si       0.91898    0.79021    0.51762    1.000
    Si5490   Si       0.91548    0.78678    0.60979    1.000
    N5491    N        0.92932    0.82933    0.53460    1.000
    N5492    N        0.87631    0.79348    0.51688    1.000
    N5493    N        0.89936    0.76268    0.57368    1.000
    Si5494   Si       0.92736    0.84639    0.57400    1.000
    N5495    N        0.88094    0.92470    0.56537    1.000
    Si5496   Si       0.90057    0.90158    0.59404    1.000
    N5497    N        0.88218    0.96245    0.50389    1.000
    Si5498   Si       0.91705    0.97494    0.52759    1.000
    N5499    N        0.89435    0.88858    0.50431    1.000
    Si5500   Si       0.87049    0.92282    0.52423    1.000
    N5501    N        0.91951    0.99236    0.61846    1.000
    N5502    N        0.90527    0.00866    0.55318    1.000
    N5503    N        0.89302    0.86125    0.72131    1.000
    Si5504   Si       0.90256    0.78561    0.71936    1.000
    N5505    N        0.88281    0.80101    0.63388    1.000
    Si5506   Si       0.87852    0.99787    0.63117    1.000
    Si5507   Si       0.89750    0.95451    0.72823    1.000
    N5508    N        0.87000    0.89536    0.66284    1.000
    Si5509   Si       0.89177    0.93222    0.65894    1.000
    N5510    N        0.91674    0.94998    0.68913    1.000
    N5511    N        0.89773    0.99958    0.73445    1.000
    N5512    N        0.91783    0.92465    0.62548    1.000
    Si5513   Si       0.88697    0.85306    0.83147    1.000
    N5514    N        0.92296    0.83244    0.82165    1.000
    N5515    N        0.89802    0.80531    0.75937    1.000
    Si5516   Si       0.92558    0.80126    0.79176    1.000
    Si5517   Si       0.87332    0.84293    0.75548    1.000
    N5518    N        0.89269    0.89430    0.84846    1.000
    N5519    N        0.92028    0.94008    0.76217    1.000
    N5520    N        0.87161    0.96231    0.87122    1.000
    N5521    N        0.92621    0.78210    0.95530    1.000
    Si5522   Si       0.89282    0.79957    0.97937    1.000
    N5523    N        0.91351    0.83676    0.98612    1.000
    N5524    N        0.92084    0.76864    0.88654    1.000
    N5525    N        0.92854    0.98912    0.90576    1.000
    N5526    N        0.91191    0.90118    0.97020    1.000
    Si5527   Si       0.87731    0.92786    0.96810    1.000
    N5528    N        0.91997    0.91872    0.90416    1.000
    Si5529   Si       0.89777    0.95716    0.90637    1.000
    N5530    N        0.97069    0.09069    0.03265    1.000
    Si5531   Si       0.97544    0.02691    0.09424    1.000
    Si5532   Si       0.94356    0.05532    0.03201    1.000
    N5533    N        0.94113    0.03092    0.06890    1.000
    N5534    N        0.95675    0.02761    0.00172    1.000
    Si5535   Si       0.95895    0.12896    0.04968    1.000
    N5536    N        0.95291    0.21869    0.07838    1.000
    N5537    N        0.95540    0.15364    0.01451    1.000
    Si5538   Si       0.95630    0.24658    0.11160    1.000
    Si5539   Si       0.98848    0.19779    0.06365    1.000
    N5540    N        0.98489    0.15628    0.07225    1.000
    N5541    N        0.96599    0.11592    0.12798    1.000
    N5542    N        0.96913    0.04874    0.20294    1.000
    N5543    N        0.96551    0.04382    0.13353    1.000
    Si5544   Si       0.95351    0.02478    0.16910    1.000
    N5545    N        0.98758    0.12789    0.19631    1.000
    N5546    N        0.97959    0.19688    0.20732    1.000
    N5547    N        0.95531    0.21970    0.14617    1.000
    Si5548   Si       0.95903    0.15838    0.20833    1.000
    N5549    N        0.94006    0.14716    0.24649    1.000
    N5550    N        0.92517    0.16270    0.18074    1.000
    N5551    N        0.96775    0.25727    0.23819    1.000
    N5552    N        0.96038    0.03130    0.30941    1.000
    N5553    N        0.95516    0.08980    0.32685    1.000
    N5554    N        0.96443    0.08119    0.25929    1.000
    Si5555   Si       0.93384    0.06410    0.29225    1.000
    Si5556   Si       0.93257    0.10711    0.24950    1.000
    Si5557   Si       0.94860    0.13494    0.32297    1.000
    N5558    N        0.98942    0.04649    0.37150    1.000
    Si5559   Si       0.95532    0.21907    0.31208    1.000
    N5560    N        0.94705    0.20631    0.35481    1.000
    N5561    N        0.98194    0.20648    0.27923    1.000
    N5562    N        0.98471    0.24814    0.33185    1.000
    N5563    N        0.93347    0.14438    0.36264    1.000
    N5564    N        0.93924    0.09112    0.40921    1.000
    N5565    N        0.95360    0.02275    0.42997    1.000
    Si5566   Si       0.97014    0.06042    0.40869    1.000
    Si5567   Si       0.95563    0.12854    0.39569    1.000
    Si5568   Si       0.96724    0.16260    0.45815    1.000
    N5569    N        0.94322    0.13557    0.48335    1.000
    Si5570   Si       0.96253    0.23870    0.49067    1.000
    N5571    N        0.96435    0.19522    0.48743    1.000
    N5572    N        0.95786    0.16726    0.41687    1.000
    N5573    N        0.97250    0.23575    0.40810    1.000
    Si5574   Si       0.94399    0.20350    0.39858    1.000
    N5575    N        0.97426    0.02080    0.58452    1.000
    N5576    N        0.95169    0.12927    0.61376    1.000
    Si5577   Si       0.93120    0.01995    0.58579    1.000
    Si5578   Si       0.98336    0.13312    0.58155    1.000
    Si5579   Si       0.96249    0.16088    0.51564    1.000
    N5580    N        0.95030    0.14953    0.55465    1.000
    Si5581   Si       0.98247    0.25266    0.55634    1.000
    N5582    N        0.94854    0.24928    0.52888    1.000
    N5583    N        0.96374    0.25509    0.59611    1.000
    Si5584   Si       0.95084    0.08535    0.62523    1.000
    Si5585   Si       0.94207    0.11152    0.69696    1.000
    N5586    N        0.97901    0.10622    0.71738    1.000
    N5587    N        0.92966    0.08704    0.66271    1.000
    N5588    N        0.95939    0.22302    0.70165    1.000
    Si5589   Si       0.95065    0.16597    0.63927    1.000
    Si5590   Si       0.93844    0.20890    0.73542    1.000
    N5591    N        0.98272    0.19253    0.64741    1.000
    N5592    N        0.94034    0.15185    0.67837    1.000
    Si5593   Si       0.95097    0.09204    0.85547    1.000
    N5594    N        0.94995    0.05274    0.75544    1.000
    N5595    N        0.94057    0.11846    0.78633    1.000
    Si5596   Si       0.97971    0.12896    0.80373    1.000
    N5597    N        0.96709    0.01203    0.85409    1.000
    N5598    N        0.93650    0.06484    0.82421    1.000
    Si5599   Si       0.93765    0.01084    0.75042    1.000
    Si5600   Si       0.92972    0.02369    0.82644    1.000
    N5601    N        0.93240    0.13188    0.86235    1.000
    Si5602   Si       0.92796    0.07641    0.78561    1.000
    N5603    N        0.95952    0.17290    0.75118    1.000
    Si5604   Si       0.95043    0.16903    0.85251    1.000
    N5605    N        0.98040    0.16873    0.82104    1.000
    N5606    N        0.93535    0.24101    0.76235    1.000
    Si5607   Si       0.97600    0.25420    0.76974    1.000
    N5608    N        0.95086    0.24957    0.87035    1.000
    Si5609   Si       0.96357    0.05177    0.96809    1.000
    N5610    N        0.97264    0.02603    0.93295    1.000
    Si5611   Si       0.95161    0.02782    0.89411    1.000
    N5612    N        0.94478    0.07142    0.89401    1.000
    Si5613   Si       0.93121    0.09866    0.92514    1.000
    Si5614   Si       0.98568    0.15669    0.91954    1.000
    N5615    N        0.95157    0.25623    0.94274    1.000
    N5616    N        0.94863    0.13730    0.93320    1.000
    N5617    N        0.97495    0.18307    0.88761    1.000
    Si5618   Si       0.98642    0.22500    0.87804    1.000
    N5619    N        0.96490    0.31656    0.06149    1.000
    N5620    N        0.96827    0.36588    0.01905    1.000
    Si5621   Si       0.96140    0.30556    0.10308    1.000
    Si5622   Si       0.93752    0.34858    0.04558    1.000
    Si5623   Si       0.93879    0.41032    0.08638    1.000
    Si5624   Si       0.97913    0.40664    0.02815    1.000
    N5625    N        0.94537    0.43132    0.01809    1.000
    N5626    N        0.97956    0.40971    0.07202    1.000
    N5627    N        0.96614    0.33842    0.13224    1.000
    Si5628   Si       0.95611    0.36309    0.22111    1.000
    Si5629   Si       0.93847    0.36692    0.14857    1.000
    N5630    N        0.97139    0.32380    0.21245    1.000
    Si5631   Si       0.98706    0.29477    0.24262    1.000
    N5632    N        0.96771    0.45897    0.17153    1.000
    N5633    N        0.94426    0.40425    0.12835    1.000
    Si5634   Si       0.96816    0.50174    0.16256    1.000
    Si5635   Si       0.93845    0.42824    0.16437    1.000
    N5636    N        0.94565    0.50182    0.12360    1.000
    N5637    N        0.94703    0.38903    0.18583    1.000
    N5638    N        0.94866    0.43250    0.24565    1.000
    Si5639   Si       0.97333    0.34784    0.29397    1.000
    N5640    N        0.93655    0.34586    0.31388    1.000
    N5641    N        0.98247    0.37369    0.25696    1.000
    N5642    N        0.98684    0.30745    0.28551    1.000
    N5643    N        0.96835    0.42702    0.30951    1.000
    Si5644   Si       0.98046    0.41654    0.26977    1.000
    Si5645   Si       0.98485    0.40465    0.34172    1.000
    N5646    N        0.94726    0.39632    0.36569    1.000
    Si5647   Si       0.95554    0.50330    0.37133    1.000
    N5648    N        0.93665    0.26015    0.46152    1.000
    N5649    N        0.96866    0.31011    0.42387    1.000
    Si5650   Si       0.94977    0.27037    0.42159    1.000
    N5651    N        0.94067    0.37859    0.44145    1.000
    Si5652   Si       0.93399    0.33965    0.42409    1.000
    Si5653   Si       0.95176    0.45830    0.47092    1.000
    N5654    N        0.98446    0.43341    0.45180    1.000
    Si5655   Si       0.98082    0.39046    0.45889    1.000
    Si5656   Si       0.93528    0.43591    0.38043    1.000
    N5657    N        0.96775    0.46390    0.38217    1.000
    Si5658   Si       0.97312    0.35929    0.61347    1.000
    N5659    N        0.97547    0.38489    0.50163    1.000
    N5660    N        0.93406    0.36482    0.59584    1.000
    N5661    N        0.95806    0.47292    0.58640    1.000
    Si5662   Si       0.94354    0.45921    0.54599    1.000
    N5663    N        0.96633    0.47393    0.51084    1.000
    Si5664   Si       0.93434    0.39421    0.51387    1.000
    Si5665   Si       0.98663    0.50599    0.58954    1.000
    Si5666   Si       0.97153    0.28837    0.62165    1.000
    N5667    N        0.98252    0.27283    0.66008    1.000
    N5668    N        0.97240    0.35975    0.65799    1.000
    N5669    N        0.94858    0.35208    0.71312    1.000
    Si5670   Si       0.94004    0.33010    0.67173    1.000
    Si5671   Si       0.98440    0.37091    0.69762    1.000
    N5672    N        0.98011    0.28924    0.74145    1.000
    N5673    N        0.93470    0.30952    0.63373    1.000
    Si5674   Si       0.94616    0.31662    0.73756    1.000
    Si5675   Si       0.94708    0.25891    0.68010    1.000
    Si5676   Si       0.96172    0.43838    0.69167    1.000
    N5677    N        0.95522    0.47409    0.71431    1.000
    Si5678   Si       0.94247    0.45889    0.62591    1.000
    N5679    N        0.97445    0.43895    0.65075    1.000
    Si5680   Si       0.93011    0.50166    0.69282    1.000
    Si5681   Si       0.95220    0.28327    0.83775    1.000
    N5682    N        0.95290    0.32468    0.83738    1.000
    N5683    N        0.97045    0.34169    0.77357    1.000
    Si5684   Si       0.96578    0.35696    0.81385    1.000
    N5685    N        0.98184    0.26921    0.80820    1.000
    N5686    N        0.95218    0.39727    0.82448    1.000
    N5687    N        0.97043    0.46777    0.78425    1.000
    Si5688   Si       0.94924    0.49820    0.80832    1.000
    Si5689   Si       0.97595    0.42906    0.80425    1.000
    Si5690   Si       0.98664    0.39973    0.86040    1.000
    Si5691   Si       0.98388    0.48645    0.74531    1.000
    N5692    N        0.93311    0.47586    0.84279    1.000
    Si5693   Si       0.93074    0.34254    0.87127    1.000
    N5694    N        0.93756    0.36260    0.95204    1.000
    N5695    N        0.96368    0.30591    0.98644    1.000
    N5696    N        0.95883    0.37547    0.88659    1.000
    Si5697   Si       0.96799    0.34768    0.98147    1.000
    Si5698   Si       0.98554    0.27868    0.95940    1.000
    Si5699   Si       0.92862    0.26428    0.90754    1.000
    Si5700   Si       0.98967    0.45057    0.92140    1.000
    Si5701   Si       0.96981    0.38263    0.92867    1.000
    N5702    N        0.97487    0.42085    0.95115    1.000
    N5703    N        0.95323    0.48290    0.97634    1.000
    Si5704   Si       0.95293    0.48929    0.88006    1.000
    Si5705   Si       0.94544    0.44088    0.97573    1.000
    N5706    N        0.94210    0.46051    0.91117    1.000
    Si5707   Si       0.96593    0.54287    0.02570    1.000
    Si5708   Si       0.96840    0.59826    0.07994    1.000
    Si5709   Si       0.96830    0.52628    0.09624    1.000
    N5710    N        0.94342    0.52674    0.05967    1.000
    N5711    N        0.96362    0.58442    0.03642    1.000
    Si5712   Si       0.94918    0.61394    0.00824    1.000
    N5713    N        0.96783    0.56657    0.11392    1.000
    N5714    N        0.93160    0.54543    0.99635    1.000
    Si5715   Si       0.95581    0.67157    0.10696    1.000
    Si5716   Si       0.97219    0.73702    0.08017    1.000
    Si5717   Si       0.95988    0.68917    0.02082    1.000
    N5718    N        0.94872    0.64913    0.03068    1.000
    N5719    N        0.98140    0.63912    0.09809    1.000
    N5720    N        0.97460    0.71038    0.11424    1.000
    N5721    N        0.92944    0.71616    0.00394    1.000
    N5722    N        0.98727    0.71081    0.04830    1.000
    Si5723   Si       0.93705    0.53820    0.21922    1.000
    N5724    N        0.97141    0.60996    0.17820    1.000
    Si5725   Si       0.95578    0.57721    0.15382    1.000
    N5726    N        0.95646    0.53923    0.17961    1.000
    N5727    N        0.93250    0.66463    0.14386    1.000
    Si5728   Si       0.93371    0.74571    0.20713    1.000
    N5729    N        0.95931    0.72268    0.23535    1.000
    Si5730   Si       0.95157    0.64888    0.17964    1.000
    N5731    N        0.93233    0.72526    0.16944    1.000
    Si5732   Si       0.97339    0.71606    0.15722    1.000
    N5733    N        0.98419    0.67922    0.17873    1.000
    N5734    N        0.93666    0.61527    0.27994    1.000
    Si5735   Si       0.97865    0.61824    0.26926    1.000
    N5736    N        0.95901    0.53133    0.25639    1.000
    N5737    N        0.96017    0.51563    0.32851    1.000
    Si5738   Si       0.93555    0.51940    0.29086    1.000
    N5739    N        0.97856    0.73311    0.30962    1.000
    N5740    N        0.94791    0.64774    0.34499    1.000
    Si5741   Si       0.96086    0.74707    0.27107    1.000
    Si5742   Si       0.94863    0.74770    0.33865    1.000
    N5743    N        0.98471    0.65491    0.24733    1.000
    Si5744   Si       0.94897    0.68115    0.24561    1.000
    Si5745   Si       0.96655    0.54593    0.43414    1.000
    N5746    N        0.97265    0.53623    0.39292    1.000
    Si5747   Si       0.96781    0.58405    0.48649    1.000
    N5748    N        0.94080    0.62906    0.41447    1.000
    N5749    N        0.93687    0.61483    0.48042    1.000
    Si5750   Si       0.98409    0.61800    0.41905    1.000
    N5751    N        0.94871    0.54550    0.49246    1.000
    N5752    N        0.98554    0.58486    0.44524    1.000
    Si5753   Si       0.94771    0.73394    0.41262    1.000
    N5754    N        0.97126    0.75195    0.37665    1.000
    N5755    N        0.93222    0.68673    0.49196    1.000
    N5756    N        0.95806    0.69303    0.40125    1.000
    Si5757   Si       0.95260    0.72604    0.48626    1.000
    N5758    N        0.96025    0.75155    0.45079    1.000
    Si5759   Si       0.93441    0.66026    0.38613    1.000
    N5760    N        0.96412    0.53992    0.57096    1.000
    Si5761   Si       0.96528    0.60645    0.61304    1.000
    Si5762   Si       0.97927    0.51304    0.49719    1.000
    N5763    N        0.93728    0.64196    0.54801    1.000
    N5764    N        0.94686    0.71287    0.58110    1.000
    Si5765   Si       0.95766    0.66985    0.57746    1.000
    Si5766   Si       0.96723    0.73606    0.61177    1.000
    Si5767   Si       0.94900    0.64753    0.50565    1.000
    N5768    N        0.94919    0.64711    0.61473    1.000
    N5769    N        0.93541    0.74861    0.51834    1.000
    N5770    N        0.97887    0.58824    0.72262    1.000
    N5771    N        0.96041    0.52908    0.67946    1.000
    Si5772   Si       0.97493    0.61499    0.68723    1.000
    N5773    N        0.97889    0.59071    0.65115    1.000
    Si5774   Si       0.93901    0.60213    0.74307    1.000
    Si5775   Si       0.97748    0.68929    0.66655    1.000
    N5776    N        0.97024    0.70351    0.70862    1.000
    N5777    N        0.94420    0.63798    0.71422    1.000
    Si5778   Si       0.97594    0.66468    0.72857    1.000
    N5779    N        0.93315    0.69445    0.65992    1.000
    N5780    N        0.93570    0.75500    0.63595    1.000
    N5781    N        0.96857    0.53507    0.82219    1.000
    N5782    N        0.94853    0.58637    0.78169    1.000
    N5783    N        0.97415    0.59788    0.85973    1.000
    Si5784   Si       0.98041    0.55760    0.78466    1.000
    Si5785   Si       0.95136    0.55948    0.85462    1.000
    Si5786   Si       0.96903    0.63817    0.84297    1.000
    N5787    N        0.95900    0.67203    0.77146    1.000
    N5788    N        0.97902    0.68007    0.85434    1.000
    N5789    N        0.98489    0.73847    0.76453    1.000
    N5790    N        0.97236    0.61456    0.97322    1.000
    Si5791   Si       0.97531    0.58176    0.94362    1.000
    N5792    N        0.94182    0.52983    0.88619    1.000
    N5793    N        0.93322    0.58539    0.93126    1.000
    N5794    N        0.98770    0.53834    0.94024    1.000
    N5795    N        0.98183    0.75083    0.97449    1.000
    N5796    N        0.93499    0.65934    0.89642    1.000
    Si5797   Si       0.96791    0.68548    0.89759    1.000
    N5798    N        0.96380    0.72427    0.91720    1.000
    N5799    N        0.98680    0.68398    0.98712    1.000
    Si5800   Si       0.94030    0.75578    0.98855    1.000
    N5801    N        0.95751    0.78305    0.02251    1.000
    N5802    N        0.94532    0.81550    0.07243    1.000
    Si5803   Si       0.98637    0.80477    0.04723    1.000
    Si5804   Si       0.95824    0.92064    0.03735    1.000
    Si5805   Si       0.96014    0.98596    0.01209    1.000
    Si5806   Si       0.97448    0.91039    0.11227    1.000
    N5807    N        0.98053    0.90018    0.00718    1.000
    N5808    N        0.93502    0.96017    0.03408    1.000
    N5809    N        0.98185    0.92873    0.07245    1.000
    N5810    N        0.93217    0.90591    0.11490    1.000
    N5811    N        0.94982    0.78329    0.19465    1.000
    N5812    N        0.95782    0.85090    0.17692    1.000
    Si5813   Si       0.92912    0.81680    0.17436    1.000
    Si5814   Si       0.92956    0.87868    0.19658    1.000
    N5815    N        0.96680    0.98303    0.16904    1.000
    N5816    N        0.98854    0.95034    0.22567    1.000
    Si5817   Si       0.95337    0.95606    0.20150    1.000
    N5818    N        0.93615    0.92092    0.18164    1.000
    N5819    N        0.96954    0.78966    0.26825    1.000
    N5820    N        0.95036    0.85111    0.30192    1.000
    Si5821   Si       0.95107    0.87682    0.26798    1.000
    N5822    N        0.93675    0.79043    0.33263    1.000
    Si5823   Si       0.93600    0.80865    0.29151    1.000
    Si5824   Si       0.93767    0.86515    0.34135    1.000
    N5825    N        0.96638    0.85456    0.37157    1.000
    Si5826   Si       0.95078    0.94086    0.35754    1.000
    N5827    N        0.95559    0.91782    0.28090    1.000
    N5828    N        0.93825    0.96841    0.32548    1.000
    Si5829   Si       0.97324    0.82013    0.39620    1.000
    Si5830   Si       0.97179    0.79293    0.46052    1.000
    N5831    N        0.97685    0.82973    0.43843    1.000
    N5832    N        0.95729    0.87790    0.48826    1.000
    Si5833   Si       0.98471    0.86935    0.45541    1.000
    N5834    N        0.93194    0.80322    0.47844    1.000
    N5835    N        0.97910    0.90320    0.42733    1.000
    N5836    N        0.94303    0.96122    0.39372    1.000
    Si5837   Si       0.96943    0.00239    0.46747    1.000
    N5838    N        0.93590    0.99260    0.49112    1.000
    Si5839   Si       0.95941    0.94127    0.42971    1.000
    Si5840   Si       0.93161    0.91019    0.49253    1.000
    N5841    N        0.94661    0.81609    0.60076    1.000
    Si5842   Si       0.98889    0.80775    0.60486    1.000
    N5843    N        0.93972    0.88807    0.57315    1.000
    N5844    N        0.93985    0.93491    0.52585    1.000
    Si5845   Si       0.96616    0.91988    0.55722    1.000
    N5846    N        0.96692    0.95287    0.58311    1.000
    Si5847   Si       0.94587    0.95689    0.61961    1.000
    Si5848   Si       0.93190    0.85183    0.70402    1.000
    Si5849   Si       0.94560    0.76991    0.67737    1.000
    N5850    N        0.95924    0.86755    0.67441    1.000
    N5851    N        0.96391    0.85893    0.73476    1.000
    N5852    N        0.98675    0.76504    0.68946    1.000
    N5853    N        0.93043    0.80882    0.69492    1.000
    N5854    N        0.97580    0.96103    0.65161    1.000
    N5855    N        0.96322    0.99353    0.71934    1.000
    N5856    N        0.97691    0.92924    0.71334    1.000
    Si5857   Si       0.95699    0.96060    0.69032    1.000
    Si5858   Si       0.96513    0.84305    0.83000    1.000
    N5859    N        0.97056    0.79999    0.78596    1.000
    N5860    N        0.95622    0.87203    0.86338    1.000
    N5861    N        0.98400    0.81429    0.85455    1.000
    Si5862   Si       0.98665    0.83687    0.76485    1.000
    Si5863   Si       0.97606    0.75889    0.80094    1.000
    Si5864   Si       0.94432    0.95192    0.79500    1.000
    N5865    N        0.95113    0.93474    0.83430    1.000
    N5866    N        0.93557    0.99740    0.79250    1.000
    N5867    N        0.98870    0.94608    0.78771    1.000
    Si5868   Si       0.93224    0.90802    0.86246    1.000
    N5869    N        0.98124    0.82740    0.97948    1.000
    Si5870   Si       0.96770    0.84033    0.89195    1.000
    N5871    N        0.97427    0.80000    0.91926    1.000
    Si5872   Si       0.94863    0.76527    0.91772    1.000
    Si5873   Si       0.94574    0.82294    0.95446    1.000
    N5874    N        0.93951    0.85212    0.92492    1.000
    Si5875   Si       0.93765    0.89342    0.93565    1.000
    Si5876   Si       0.98766    0.92791    0.97541    1.000
    N5877    N        0.96092    0.96312    0.97404    1.000
    N5878    N        0.97973    0.90604    0.93866    1.000
    Si5879   Si       0.96172    0.98308    0.93402    1.000
