# CIF file generated by openbabel 3.1.1, see https://openbabel.org
data_I
_chemical_name_common '3.01-11.aims'
_cell_length_a 39.9593
_cell_length_b 39.9593
_cell_length_c 39.9593
_cell_angle_alpha 90
_cell_angle_beta 90
_cell_angle_gamma 90
loop_
    _atom_site_label
    _atom_site_type_symbol
    _atom_site_fract_x
    _atom_site_fract_y
    _atom_site_fract_z
    _atom_site_occupancy
    Si0      Si       0.01024    0.08868    0.03030    1.000
    N1       N        0.01796    0.04916    0.04501    1.000
    N2       N        0.02385    0.12792    0.04628    1.000
    Si3      Si       0.99611    0.23553    0.02740    1.000
    Si4      Si       0.99743    0.16389    0.06000    1.000
    N5       N        0.02243    0.18565    0.09003    1.000
    Si6      Si       0.03412    0.22767    0.08887    1.000
    N7       N        0.99670    0.19241    0.02697    1.000
    N8       N        0.03028    0.25465    0.00558    1.000
    N9       N        0.98955    0.08982    0.21183    1.000
    Si10     Si       0.01649    0.12308    0.21118    1.000
    Si11     Si       0.00931    0.05554    0.19179    1.000
    Si12     Si       0.02501    0.10933    0.13755    1.000
    N13      N        0.04025    0.03845    0.22024    1.000
    N14      N        0.02757    0.06961    0.15426    1.000
    Si15     Si       0.98953    0.02245    0.02510    1.000
    Si16     Si       0.01322    0.17781    0.18225    1.000
    N17      N        0.99397    0.16008    0.21915    1.000
    N18      N        0.02304    0.13782    0.17067    1.000
    N19      N        0.03675    0.24548    0.12890    1.000
    Si20     Si       0.99774    0.24297    0.14873    1.000
    N21      N        0.00901    0.25456    0.06532    1.000
    N22      N        0.98805    0.11317    0.11533    1.000
    N23      N        0.01602    0.00857    0.11966    1.000
    N24      N        0.01107    0.03836    0.29784    1.000
    N25      N        0.02571    0.09321    0.35917    1.000
    Si26     Si       0.02238    0.12133    0.32219    1.000
    N27      N        0.00240    0.02078    0.36219    1.000
    Si28     Si       0.03806    0.03514    0.26387    1.000
    Si29     Si       0.99274    0.06443    0.36424    1.000
    Si30     Si       0.00937    0.17822    0.48954    1.000
    Si31     Si       0.00178    0.19528    0.31127    1.000
    N32      N        0.01969    0.19683    0.27091    1.000
    N33      N        0.01319    0.16078    0.33859    1.000
    N34      N        0.02660    0.23266    0.31916    1.000
    Si35     Si       0.04597    0.23322    0.27822    1.000
    Si36     Si       0.99712    0.23877    0.40853    1.000
    Si37     Si       0.00947    0.10639    0.47166    1.000
    N38      N        0.03272    0.04979    0.42024    1.000
    N39      N        0.02858    0.11541    0.43458    1.000
    Si40     Si       0.04321    0.08907    0.40140    1.000
    Si41     Si       0.98912    0.05315    0.43284    1.000
    Si42     Si       0.02477    0.00588    0.32550    1.000
    N43      N        0.01507    0.20179    0.39227    1.000
    N44      N        0.04389    0.18050    0.46190    1.000
    N45      N        0.99085    0.10677    0.29395    1.000
    N46      N        0.99072    0.14113    0.48944    1.000
    Si47     Si       0.98847    0.17742    0.37006    1.000
    N48      N        0.01537    0.03060    0.52100    1.000
    Si49     Si       0.03616    0.09797    0.54110    1.000
    Si50     Si       0.02715    0.03269    0.56291    1.000
    N51      N        0.99402    0.09205    0.54516    1.000
    N52      N        0.99197    0.03073    0.58665    1.000
    N53      N        0.00995    0.25596    0.74180    1.000
    Si54     Si       0.00271    0.20113    0.61385    1.000
    N55      N        0.02218    0.18686    0.53086    1.000
    N56      N        0.01906    0.16311    0.60032    1.000
    N57      N        0.01644    0.22640    0.58103    1.000
    Si58     Si       0.99610    0.22155    0.54164    1.000
    Si59     Si       0.04501    0.16936    0.56543    1.000
    N60      N        0.00090    0.26068    0.52395    1.000
    N61      N        0.99163    0.08772    0.70720    1.000
    Si62     Si       0.02244    0.11573    0.70084    1.000
    N63      N        0.02572    0.03114    0.72109    1.000
    N64      N        0.01399    0.04709    0.65501    1.000
    Si65     Si       0.01631    0.12894    0.62647    1.000
    Si66     Si       0.99506    0.04555    0.69450    1.000
    Si67     Si       0.01106    0.18746    0.67799    1.000
    N68      N        0.02118    0.21713    0.64835    1.000
    N69      N        0.01449    0.14408    0.66791    1.000
    Si70     Si       0.04290    0.24164    0.71836    1.000
    N71      N        0.02791    0.13605    0.73871    1.000
    N72      N        0.03606    0.19856    0.71004    1.000
    Si73     Si       0.03606    0.25915    0.64507    1.000
    N74      N        0.04232    0.09351    0.49771    1.000
    N75      N        0.03299    0.07044    0.85300    1.000
    Si76     Si       0.01307    0.04904    0.75960    1.000
    N77      N        0.03515    0.08231    0.78033    1.000
    N78      N        0.01583    0.02215    0.79363    1.000
    Si79     Si       0.01368    0.11910    0.77636    1.000
    Si80     Si       0.00109    0.10208    0.85001    1.000
    N81      N        0.99431    0.01057    0.86365    1.000
    N82      N        0.01060    0.13304    0.82047    1.000
    Si83     Si       0.01093    0.17492    0.81793    1.000
    N84      N        0.01472    0.18908    0.77563    1.000
    Si85     Si       0.03137    0.23773    0.84241    1.000
    N86      N        0.01007    0.25037    0.80533    1.000
    Si87     Si       0.99449    0.22546    0.77150    1.000
    N88      N        0.04283    0.19359    0.84018    1.000
    Si89     Si       0.04113    0.23964    0.96705    1.000
    Si90     Si       0.03975    0.11846    0.97300    1.000
    Si91     Si       0.02774    0.03780    0.88059    1.000
    N92      N        0.01382    0.05101    0.91855    1.000
    Si93     Si       0.01568    0.05065    0.96251    1.000
    N94      N        0.99819    0.01484    0.98446    1.000
    N95      N        0.03301    0.08095    0.99365    1.000
    N96      N        0.00219    0.13760    0.97511    1.000
    Si97     Si       0.00123    0.17767    0.98612    1.000
    N98      N        0.00431    0.25174    0.94398    1.000
    N99      N        0.00725    0.23565    0.87735    1.000
    N100     N        0.03785    0.19600    0.97346    1.000
    Si101    Si       0.04293    0.17602    0.74668    1.000
    N102     N        0.00708    0.31254    0.03000    1.000
    N103     N        0.00414    0.32106    0.10738    1.000
    Si104    Si       0.00773    0.35470    0.04433    1.000
    N105     N        0.01398    0.37540    0.00650    1.000
    Si106    Si       0.03985    0.28374    0.03755    1.000
    N107     N        0.04687    0.35657    0.06573    1.000
    Si108    Si       0.03752    0.49941    0.15752    1.000
    N109     N        0.01816    0.45878    0.15927    1.000
    Si110    Si       0.03488    0.42719    0.18520    1.000
    N111     N        0.02908    0.46955    0.06842    1.000
    N112     N        0.00890    0.39216    0.19604    1.000
    N113     N        0.04099    0.31652    0.21855    1.000
    N114     N        0.00251    0.27094    0.18202    1.000
    Si115    Si       0.02000    0.35373    0.21078    1.000
    Si116    Si       0.01306    0.28323    0.22230    1.000
    N117     N        0.02319    0.38495    0.12344    1.000
    Si118    Si       0.02864    0.34392    0.28746    1.000
    N119     N        0.02904    0.29752    0.31690    1.000
    N120     N        0.02256    0.37011    0.32137    1.000
    Si121    Si       0.99882    0.28409    0.28958    1.000
    N122     N        0.02415    0.26514    0.25948    1.000
    N123     N        0.02954    0.37210    0.25344    1.000
    Si124    Si       0.03001    0.26394    0.34662    1.000
    Si125    Si       0.99255    0.36492    0.35314    1.000
    Si126    Si       0.00344    0.43113    0.43636    1.000
    N127     N        0.03294    0.42502    0.35473    1.000
    N128     N        0.99448    0.49498    0.24748    1.000
    Si129    Si       0.02529    0.41371    0.25244    1.000
    Si130    Si       0.99101    0.43647    0.36104    1.000
    N131     N        0.04518    0.42903    0.28858    1.000
    N132     N        0.03134    0.40383    0.41931    1.000
    N133     N        0.00335    0.27214    0.37993    1.000
    Si134    Si       0.02327    0.36013    0.42620    1.000
    N135     N        0.00847    0.34498    0.38778    1.000
    N136     N        0.99396    0.33793    0.44988    1.000
    N137     N        0.04090    0.30061    0.49364    1.000
    N138     N        0.02639    0.44875    0.46863    1.000
    Si139    Si       0.04783    0.27647    0.45745    1.000
    N140     N        0.01078    0.25453    0.44818    1.000
    N141     N        0.98733    0.45664    0.40108    1.000
    N142     N        0.98966    0.32616    0.27537    1.000
    N143     N        0.01956    0.36844    0.49741    1.000
    N144     N        0.02601    0.30546    0.57126    1.000
    Si145    Si       0.03449    0.28378    0.53488    1.000
    N146     N        0.03086    0.37423    0.56744    1.000
    Si147    Si       0.99319    0.30065    0.59747    1.000
    N148     N        0.03999    0.40459    0.67306    1.000
    Si149    Si       0.04844    0.34165    0.58684    1.000
    Si150    Si       0.00574    0.38714    0.53330    1.000
    N151     N        0.03578    0.49225    0.52105    1.000
    Si152    Si       0.01425    0.45723    0.50950    1.000
    N153     N        0.02222    0.42863    0.53874    1.000
    N154     N        0.04864    0.43023    0.61006    1.000
    N155     N        0.03784    0.35142    0.62810    1.000
    N156     N        0.99973    0.28516    0.63893    1.000
    N157     N        0.00696    0.35215    0.73978    1.000
    Si158    Si       0.99621    0.35742    0.63437    1.000
    Si159    Si       0.02449    0.49537    0.66667    1.000
    N160     N        0.01597    0.42541    0.73560    1.000
    N161     N        0.99787    0.46543    0.64916    1.000
    Si162    Si       0.01808    0.42616    0.63955    1.000
    Si163    Si       0.01472    0.28477    0.78047    1.000
    N164     N        0.02651    0.33734    0.87031    1.000
    Si165    Si       0.02359    0.38946    0.75815    1.000
    Si166    Si       0.00643    0.46090    0.75872    1.000
    N167     N        0.02782    0.40777    0.79652    1.000
    N168     N        0.00179    0.43339    0.85916    1.000
    N169     N        0.03971    0.49299    0.75832    1.000
    Si170    Si       0.99153    0.42026    0.81805    1.000
    Si171    Si       0.01257    0.26797    0.90601    1.000
    Si172    Si       0.00303    0.35346    0.96984    1.000
    N173     N        0.03808    0.34225    0.95063    1.000
    Si174    Si       0.04331    0.35409    0.90899    1.000
    N175     N        0.99216    0.47775    0.90992    1.000
    N176     N        0.02915    0.43287    0.97789    1.000
    Si177    Si       0.03418    0.48677    0.91000    1.000
    N178     N        0.01992    0.39209    0.90900    1.000
    Si179    Si       0.03833    0.41882    0.88033    1.000
    Si180    Si       0.98825    0.41918    0.99039    1.000
    N181     N        0.01202    0.54245    0.03098    1.000
    N182     N        0.01901    0.60520    0.00556    1.000
    N183     N        0.03701    0.57163    0.10907    1.000
    Si184    Si       0.99193    0.58182    0.02777    1.000
    N185     N        0.01050    0.63564    0.09251    1.000
    N186     N        0.00615    0.66541    0.02914    1.000
    Si187    Si       0.02728    0.71143    0.10303    1.000
    Si188    Si       0.03233    0.65369    0.06017    1.000
    N189     N        0.98868    0.73328    0.01371    1.000
    N190     N        0.98737    0.70839    0.08022    1.000
    Si191    Si       0.02994    0.51397    0.23355    1.000
    N192     N        0.00242    0.51867    0.13972    1.000
    N193     N        0.01860    0.58046    0.17560    1.000
    Si194    Si       0.00471    0.56248    0.13802    1.000
    Si195    Si       0.00076    0.57169    0.21389    1.000
    N196     N        0.03125    0.55832    0.24088    1.000
    Si197    Si       0.00052    0.64280    0.21103    1.000
    N198     N        0.02441    0.69330    0.14309    1.000
    N199     N        0.99710    0.72780    0.20190    1.000
    Si200    Si       0.98848    0.70268    0.16709    1.000
    N201     N        0.04107    0.63890    0.19316    1.000
    Si202    Si       0.02591    0.70997    0.22869    1.000
    N203     N        0.01182    0.67101    0.24246    1.000
    Si204    Si       0.04660    0.61330    0.10243    1.000
    N205     N        0.98360    0.60769    0.23048    1.000
    N206     N        0.00739    0.59739    0.29528    1.000
    Si207    Si       0.04157    0.58196    0.27359    1.000
    Si208    Si       0.99187    0.59763    0.33475    1.000
    N209     N        0.03595    0.74402    0.33701    1.000
    Si210    Si       0.01451    0.66813    0.33721    1.000
    Si211    Si       0.01218    0.73423    0.29977    1.000
    N212     N        0.03812    0.72932    0.26518    1.000
    N213     N        0.99832    0.69421    0.30613    1.000
    N214     N        0.00004    0.57401    0.37049    1.000
    N215     N        0.00215    0.52055    0.47511    1.000
    N216     N        0.04005    0.55195    0.42563    1.000
    Si217    Si       0.03946    0.56747    0.38481    1.000
    Si218    Si       0.99780    0.54607    0.44062    1.000
    Si219    Si       0.01125    0.60127    0.49126    1.000
    N220     N        0.04321    0.56942    0.49113    1.000
    Si221    Si       0.01041    0.73609    0.37087    1.000
    N222     N        0.02928    0.74905    0.40902    1.000
    N223     N        0.00712    0.63864    0.41781    1.000
    N224     N        0.00897    0.69617    0.44838    1.000
    N225     N        0.03919    0.74163    0.48218    1.000
    N226     N        0.01292    0.69203    0.37493    1.000
    Si227    Si       0.99406    0.67881    0.41009    1.000
    Si228    Si       0.00487    0.67283    0.48454    1.000
    N229     N        0.03121    0.63836    0.48201    1.000
    Si230    Si       0.04444    0.64209    0.44092    1.000
    Si231    Si       0.04660    0.72011    0.44141    1.000
    Si232    Si       0.04458    0.52493    0.49281    1.000
    N233     N        0.00896    0.62244    0.60428    1.000
    N234     N        0.02662    0.52341    0.58049    1.000
    N235     N        0.03156    0.67066    0.71911    1.000
    Si236    Si       0.04434    0.54073    0.61495    1.000
    Si237    Si       0.02040    0.64178    0.68935    1.000
    Si238    Si       0.00949    0.62731    0.55962    1.000
    N239     N        0.00305    0.69422    0.52168    1.000
    Si240    Si       0.03713    0.69548    0.54892    1.000
    N241     N        0.03423    0.70904    0.59015    1.000
    N242     N        0.04381    0.65207    0.55445    1.000
    N243     N        0.01671    0.60126    0.70132    1.000
    Si244    Si       0.00952    0.51784    0.73155    1.000
    N245     N        0.02957    0.57427    0.63745    1.000
    Si246    Si       0.04002    0.56904    0.67952    1.000
    N247     N        0.02033    0.53132    0.69158    1.000
    Si248    Si       0.00620    0.59507    0.74234    1.000
    Si249    Si       0.04778    0.61310    0.62381    1.000
    N250     N        0.00418    0.75471    0.62335    1.000
    N251     N        0.02091    0.70384    0.66236    1.000
    Si252    Si       0.03604    0.72660    0.62809    1.000
    Si253    Si       0.04949    0.70531    0.69700    1.000
    N254     N        0.02736    0.76242    0.55009    1.000
    N255     N        0.02794    0.53102    0.81643    1.000
    N256     N        0.03416    0.61803    0.76362    1.000
    N257     N        0.00197    0.55336    0.75646    1.000
    Si258    Si       0.04024    0.54680    0.85539    1.000
    Si259    Si       0.99219    0.54791    0.79842    1.000
    Si260    Si       0.99301    0.60330    0.85487    1.000
    N261     N        0.02723    0.63210    0.85624    1.000
    N262     N        0.01697    0.70857    0.77508    1.000
    Si263    Si       0.02866    0.67868    0.85851    1.000
    Si264    Si       0.02555    0.66459    0.76426    1.000
    N265     N        0.99442    0.69923    0.84413    1.000
    Si266    Si       0.04143    0.74237    0.76299    1.000
    Si267    Si       0.02464    0.75041    0.99692    1.000
    N268     N        0.01026    0.57027    0.87759    1.000
    N269     N        0.03292    0.56524    0.94806    1.000
    Si270    Si       0.00164    0.57762    0.92119    1.000
    N271     N        0.99532    0.62085    0.92544    1.000
    N272     N        0.03065    0.68267    0.90164    1.000
    N273     N        0.03571    0.66001    0.96406    1.000
    N274     N        0.03819    0.72792    0.96231    1.000
    Si275    Si       0.03144    0.72221    0.91896    1.000
    Si276    Si       0.00612    0.64415    0.99015    1.000
    N277     N        0.99455    0.73829    0.90822    1.000
    Si278    Si       0.03198    0.64602    0.92278    1.000
    Si279    Si       0.00923    0.83576    0.07532    1.000
    N280     N        0.03142    0.81676    0.10799    1.000
    N281     N        0.01647    0.83531    0.03097    1.000
    N282     N        0.00729    0.88002    0.07557    1.000
    N283     N        0.02081    0.93511    0.03145    1.000
    N284     N        0.00390    0.93863    0.09631    1.000
    Si285    Si       0.03162    0.90366    0.10390    1.000
    Si286    Si       0.01003    0.98078    0.08695    1.000
    Si287    Si       0.98993    0.91617    0.05861    1.000
    N288     N        0.02967    0.91027    0.19696    1.000
    Si289    Si       0.00339    0.91503    0.99671    1.000
    N290     N        0.99957    0.79440    0.22942    1.000
    Si291    Si       0.02758    0.83732    0.14550    1.000
    Si292    Si       0.01462    0.83156    0.20989    1.000
    N293     N        0.99034    0.83511    0.16915    1.000
    N294     N        0.99236    0.86689    0.22635    1.000
    N295     N        0.04148    0.87911    0.13760    1.000
    Si296    Si       0.99008    0.99118    0.15094    1.000
    Si297    Si       0.02581    0.89109    0.23653    1.000
    Si298    Si       0.99388    0.92138    0.17868    1.000
    N299     N        0.01171    0.95857    0.16490    1.000
    N300     N        0.01388    0.82820    0.28790    1.000
    N301     N        0.02043    0.86738    0.34123    1.000
    N302     N        0.00457    0.97336    0.47286    1.000
    N303     N        0.01683    0.96266    0.32545    1.000
    Si304    Si       0.02446    0.94440    0.36534    1.000
    N305     N        0.99189    0.95856    0.25870    1.000
    Si306    Si       0.00034    0.89136    0.43379    1.000
    N307     N        0.03852    0.91898    0.44157    1.000
    Si308    Si       0.99177    0.93770    0.29712    1.000
    N309     N        0.99010    0.92032    0.37020    1.000
    Si310    Si       0.04282    0.84857    0.37132    1.000
    N311     N        0.02734    0.87542    0.40165    1.000
    Si312    Si       0.00933    0.82502    0.46723    1.000
    N313     N        0.99847    0.86628    0.46993    1.000
    N314     N        0.02809    0.81154    0.38079    1.000
    N315     N        0.04472    0.81234    0.44609    1.000
    N316     N        0.01710    0.96938    0.39995    1.000
    Si317    Si       0.03187    0.96144    0.44019    1.000
    N318     N        0.04942    0.99387    0.27281    1.000
    Si319    Si       0.98611    0.87788    0.36981    1.000
    Si320    Si       0.99075    0.85782    0.30810    1.000
    Si321    Si       0.03403    0.96328    0.24569    1.000
    N322     N        0.01805    0.86742    0.60843    1.000
    Si323    Si       0.03201    0.82774    0.59629    1.000
    Si324    Si       0.03899    0.84271    0.52548    1.000
    Si325    Si       0.01596    0.76763    0.50770    1.000
    N326     N        0.02002    0.81108    0.50518    1.000
    N327     N        0.00676    0.86906    0.53688    1.000
    Si328    Si       0.99592    0.76121    0.58107    1.000
    N329     N        0.99257    0.80694    0.59000    1.000
    N330     N        0.04740    0.92071    0.56802    1.000
    Si331    Si       0.01410    0.89217    0.57250    1.000
    Si332    Si       0.01891    0.98891    0.51079    1.000
    Si333    Si       0.03298    0.96276    0.57170    1.000
    N334     N        0.99659    0.97445    0.54637    1.000
    N335     N        0.01036    0.95892    0.60997    1.000
    Si336    Si       0.03732    0.95906    0.64488    1.000
    Si337    Si       0.99611    0.83218    0.69365    1.000
    N338     N        0.02732    0.85897    0.67884    1.000
    N339     N        0.01049    0.79424    0.67769    1.000
    N340     N        0.99233    0.82903    0.73702    1.000
    N341     N        0.01740    0.97414    0.68111    1.000
    N342     N        0.01278    0.89800    0.73974    1.000
    Si343    Si       0.03960    0.99082    0.71428    1.000
    Si344    Si       0.02162    0.88746    0.64696    1.000
    Si345    Si       0.05046    0.78853    0.66197    1.000
    Si346    Si       0.99601    0.93763    0.74533    1.000
    N347     N        0.02495    0.78035    0.77542    1.000
    Si348    Si       0.02422    0.87453    0.81418    1.000
    N349     N        0.04349    0.83767    0.82545    1.000
    Si350    Si       0.98756    0.79391    0.75885    1.000
    N351     N        0.00605    0.90078    0.84286    1.000
    Si352    Si       0.00406    0.96864    0.85460    1.000
    N353     N        0.02838    0.96248    0.81821    1.000
    Si354    Si       0.03791    0.98627    0.78545    1.000
    N355     N        0.02531    0.96799    0.74800    1.000
    N356     N        0.04378    0.79011    0.99247    1.000
    Si357    Si       0.03154    0.83909    0.98903    1.000
    N358     N        0.00200    0.83812    0.95392    1.000
    Si359    Si       0.03433    0.84258    0.92500    1.000
    N360     N        0.02240    0.81303    0.89363    1.000
    N361     N        0.04093    0.87754    0.89942    1.000
    N362     N        0.99415    0.94207    0.96421    1.000
    Si363    Si       0.01599    0.90720    0.88269    1.000
    N364     N        0.03037    0.88375    0.98770    1.000
    N365     N        0.02615    0.94865    0.88589    1.000
    Si366    Si       0.08262    0.08825    0.09269    1.000
    N367     N        0.08678    0.09659    0.04965    1.000
    N368     N        0.06503    0.04844    0.09619    1.000
    N369     N        0.08142    0.02384    0.02663    1.000
    N370     N        0.05977    0.12040    0.11161    1.000
    Si371    Si       0.05511    0.02721    0.06090    1.000
    Si372    Si       0.06875    0.05506    0.99867    1.000
    Si373    Si       0.06572    0.13264    0.03946    1.000
    N374     N        0.08358    0.16212    0.06232    1.000
    Si375    Si       0.05910    0.16271    0.09944    1.000
    N376     N        0.07101    0.23447    0.06463    1.000
    Si377    Si       0.09461    0.20571    0.04205    1.000
    N378     N        0.08081    0.19205    0.12153    1.000
    Si379    Si       0.04701    0.03561    0.13201    1.000
    Si380    Si       0.07240    0.01335    0.19953    1.000
    N381     N        0.05477    0.11604    0.23035    1.000
    N382     N        0.07973    0.02515    0.15809    1.000
    Si383    Si       0.09639    0.12760    0.21617    1.000
    N384     N        0.10328    0.23088    0.17761    1.000
    N385     N        0.10392    0.17003    0.22127    1.000
    Si386    Si       0.08252    0.20410    0.20637    1.000
    N387     N        0.07467    0.22759    0.24129    1.000
    N388     N        0.04843    0.20151    0.18086    1.000
    Si389    Si       0.07086    0.22377    0.14819    1.000
    N390     N        0.06803    0.14177    0.99724    1.000
    N391     N        0.10551    0.19793    0.00053    1.000
    N392     N        0.07657    0.05579    0.27163    1.000
    Si393    Si       0.07384    0.10067    0.26730    1.000
    N394     N        0.06194    0.12758    0.30170    1.000
    Si395    Si       0.10158    0.01022    0.35869    1.000
    N396     N        0.07524    0.19407    0.34425    1.000
    Si397    Si       0.08838    0.15669    0.32233    1.000
    Si398    Si       0.08880    0.23286    0.33249    1.000
    Si399    Si       0.05698    0.19212    0.38386    1.000
    Si400    Si       0.08194    0.08787    0.48303    1.000
    N401     N        0.08527    0.09179    0.39465    1.000
    N402     N        0.09183    0.02573    0.39804    1.000
    N403     N        0.08970    0.04766    0.46404    1.000
    Si404    Si       0.06952    0.02787    0.43299    1.000
    N405     N        0.09059    0.12587    0.46046    1.000
    Si406    Si       0.10332    0.12977    0.39020    1.000
    N407     N        0.07539    0.24593    0.47568    1.000
    Si408    Si       0.07515    0.21009    0.44988    1.000
    Si409    Si       0.05734    0.14542    0.44069    1.000
    N410     N        0.07185    0.15620    0.39919    1.000
    N411     N        0.07290    0.22393    0.40974    1.000
    Si412    Si       0.10562    0.25384    0.25524    1.000
    N413     N        0.08421    0.25862    0.29479    1.000
    Si414    Si       0.07581    0.07986    0.60057    1.000
    N415     N        0.05063    0.06784    0.56723    1.000
    Si416    Si       0.08468    0.01066    0.61016    1.000
    N417     N        0.06397    0.13203    0.55281    1.000
    Si418    Si       0.10280    0.11529    0.55103    1.000
    N419     N        0.07735    0.19773    0.57281    1.000
    Si420    Si       0.06094    0.23544    0.57939    1.000
    Si421    Si       0.09743    0.24867    0.51221    1.000
    N422     N        0.07142    0.25283    0.61777    1.000
    Si423    Si       0.09838    0.10080    0.69942    1.000
    N424     N        0.05118    0.10376    0.62563    1.000
    Si425    Si       0.05255    0.06969    0.65392    1.000
    N426     N        0.05822    0.09307    0.68986    1.000
    N427     N        0.08560    0.04966    0.63337    1.000
    N428     N        0.07642    0.24488    0.74717    1.000
    N429     N        0.08213    0.03778    0.81934    1.000
    N430     N        0.08998    0.10449    0.81417    1.000
    Si431    Si       0.05739    0.07325    0.81677    1.000
    Si432    Si       0.09346    0.01455    0.85308    1.000
    Si433    Si       0.07859    0.18210    0.86112    1.000
    Si434    Si       0.09912    0.25154    0.86198    1.000
    N435     N        0.08480    0.17717    0.74873    1.000
    N436     N        0.06576    0.10629    0.94188    1.000
    N437     N        0.05853    0.02986    0.96427    1.000
    N438     N        0.06178    0.01430    0.88443    1.000
    Si439    Si       0.10179    0.07731    0.94608    1.000
    N440     N        0.07886    0.13901    0.87828    1.000
    Si441    Si       0.10100    0.21615    0.92733    1.000
    N442     N        0.09167    0.17478    0.93691    1.000
    Si443    Si       0.07682    0.17767    0.97646    1.000
    Si444    Si       0.08987    0.13472    0.91944    1.000
    N445     N        0.07803    0.24712    0.94740    1.000
    N446     N        0.09001    0.21581    0.88466    1.000
    N447     N        0.10493    0.07664    0.98840    1.000
    Si448    Si       0.09158    0.00607    0.94566    1.000
    N449     N        0.06125    0.29761    0.07581    1.000
    N450     N        0.07055    0.31087    0.01575    1.000
    Si451    Si       0.08981    0.32431    0.05216    1.000
    Si452    Si       0.09382    0.26760    0.08048    1.000
    Si453    Si       0.07650    0.38900    0.06413    1.000
    N454     N        0.08486    0.40674    0.10248    1.000
    Si455    Si       0.06663    0.46035    0.05123    1.000
    N456     N        0.06414    0.41910    0.03744    1.000
    N457     N        0.06252    0.48394    0.01542    1.000
    N458     N        0.10179    0.46614    0.07202    1.000
    Si459    Si       0.04865    0.40114    0.00121    1.000
    Si460    Si       0.07875    0.32539    0.23891    1.000
    N461     N        0.07752    0.34265    0.12969    1.000
    N462     N        0.09526    0.35991    0.22007    1.000
    Si463    Si       0.06560    0.38419    0.13475    1.000
    N464     N        0.07139    0.40515    0.17237    1.000
    N465     N        0.04723    0.44100    0.22552    1.000
    Si466    Si       0.04604    0.33034    0.10154    1.000
    N467     N        0.07211    0.33085    0.28372    1.000
    Si468    Si       0.07556    0.29575    0.31393    1.000
    N469     N        0.07207    0.26780    0.35675    1.000
    Si470    Si       0.05048    0.40259    0.32224    1.000
    N471     N        0.06985    0.50623    0.45988    1.000
    N472     N        0.09258    0.38452    0.32443    1.000
    Si473    Si       0.06884    0.45537    0.26239    1.000
    N474     N        0.05911    0.49648    0.26124    1.000
    Si475    Si       0.05357    0.42867    0.39191    1.000
    N476     N        0.07100    0.29135    0.42639    1.000
    Si477    Si       0.09535    0.32568    0.43553    1.000
    N478     N        0.06163    0.35097    0.44861    1.000
    Si479    Si       0.08710    0.26360    0.39694    1.000
    Si480    Si       0.05177    0.34148    0.48926    1.000
    N481     N        0.09400    0.41416    0.38534    1.000
    N482     N        0.09760    0.43857    0.45339    1.000
    Si483    Si       0.06249    0.46321    0.45207    1.000
    N484     N        0.05564    0.46916    0.40899    1.000
    N485     N        0.09042    0.33312    0.58715    1.000
    N486     N        0.08143    0.34348    0.52009    1.000
    N487     N        0.06905    0.26223    0.54501    1.000
    Si488    Si       0.04683    0.43071    0.70548    1.000
    N489     N        0.09132    0.40692    0.55203    1.000
    N490     N        0.07978    0.47482    0.57372    1.000
    Si491    Si       0.06935    0.46946    0.61355    1.000
    Si492    Si       0.05153    0.41309    0.57034    1.000
    N493     N        0.08332    0.43935    0.73255    1.000
    N494     N        0.05605    0.33636    0.69072    1.000
    N495     N        0.05469    0.26756    0.68446    1.000
    Si496    Si       0.06074    0.36815    0.66170    1.000
    Si497    Si       0.08388    0.30324    0.68682    1.000
    N498     N        0.10064    0.36708    0.64929    1.000
    N499     N        0.10260    0.31212    0.72714    1.000
    N500     N        0.06328    0.37570    0.74914    1.000
    N501     N        0.05554    0.50430    0.63661    1.000
    Si502    Si       0.07338    0.48303    0.72932    1.000
    Si503    Si       0.04815    0.33733    0.73381    1.000
    N504     N        0.04396    0.47227    0.69725    1.000
    N505     N        0.08542    0.33245    0.83831    1.000
    Si506    Si       0.08652    0.28669    0.75673    1.000
    Si507    Si       0.09275    0.37197    0.85826    1.000
    Si508    Si       0.05682    0.30868    0.86341    1.000
    N509     N        0.06214    0.26853    0.84618    1.000
    N510     N        0.04873    0.30691    0.76343    1.000
    N511     N        0.06505    0.40305    0.85097    1.000
    N512     N        0.06333    0.46713    0.82397    1.000
    Si513    Si       0.06481    0.42333    0.81439    1.000
    Si514    Si       0.07502    0.48087    0.86454    1.000
    Si515    Si       0.05731    0.50334    0.79896    1.000
    N516     N        0.09937    0.40923    0.79302    1.000
    Si517    Si       0.09651    0.40206    0.75134    1.000
    N518     N        0.08489    0.36274    0.90030    1.000
    Si519    Si       0.08708    0.28516    0.92726    1.000
    Si520    Si       0.07200    0.33512    0.97828    1.000
    N521     N        0.04973    0.28990    0.90492    1.000
    N522     N        0.07978    0.37756    0.98486    1.000
    N523     N        0.10140    0.32088    0.94747    1.000
    Si524    Si       0.05919    0.46323    0.97680    1.000
    N525     N        0.09927    0.44476    0.97271    1.000
    N526     N        0.05772    0.45373    0.89378    1.000
    N527     N        0.05005    0.49618    0.94905    1.000
    N528     N        0.07436    0.52791    0.06259    1.000
    Si529    Si       0.07142    0.54635    0.10312    1.000
    N530     N        0.06360    0.62343    0.06354    1.000
    Si531    Si       0.05171    0.52566    0.02620    1.000
    Si532    Si       0.09005    0.73044    0.13142    1.000
    N533     N        0.09432    0.74372    0.23796    1.000
    N534     N        0.10091    0.57877    0.10016    1.000
    N535     N        0.08191    0.67466    0.00968    1.000
    Si536    Si       0.07949    0.70241    0.04319    1.000
    N537     N        0.05884    0.73699    0.02349    1.000
    N538     N        0.05399    0.74788    0.11158    1.000
    N539     N        0.05243    0.68864    0.07614    1.000
    N540     N        0.09414    0.68683    0.14592    1.000
    N541     N        0.06800    0.51454    0.13092    1.000
    N542     N        0.10206    0.54257    0.23791    1.000
    N543     N        0.08686    0.58004    0.18296    1.000
    Si544    Si       0.08722    0.53812    0.19753    1.000
    Si545    Si       0.05294    0.60387    0.17030    1.000
    N546     N        0.05159    0.51399    0.19505    1.000
    N547     N        0.06532    0.62973    0.13680    1.000
    Si548    Si       0.09842    0.72024    0.20114    1.000
    N549     N        0.09306    0.75045    0.17076    1.000
    Si550    Si       0.06511    0.65287    0.22845    1.000
    N551     N        0.06002    0.69608    0.20375    1.000
    Si552    Si       0.05556    0.67324    0.16470    1.000
    Si553    Si       0.10596    0.61314    0.07068    1.000
    N554     N        0.06582    0.55526    0.29918    1.000
    Si555    Si       0.08137    0.55424    0.34103    1.000
    Si556    Si       0.08660    0.52578    0.27451    1.000
    N557     N        0.06510    0.59205    0.35918    1.000
    N558     N        0.05869    0.61927    0.25816    1.000
    N559     N        0.05807    0.52941    0.36889    1.000
    Si560    Si       0.08389    0.62814    0.34679    1.000
    N561     N        0.08760    0.73535    0.44508    1.000
    N562     N        0.05160    0.65052    0.32309    1.000
    Si563    Si       0.08029    0.71783    0.27047    1.000
    N564     N        0.09019    0.67572    0.26028    1.000
    Si565    Si       0.07665    0.64517    0.28811    1.000
    Si566    Si       0.07912    0.74892    0.33995    1.000
    N567     N        0.10151    0.73068    0.30672    1.000
    Si568    Si       0.06395    0.51471    0.41193    1.000
    Si569    Si       0.06953    0.57328    0.45562    1.000
    N570     N        0.07494    0.60993    0.43480    1.000
    N571     N        0.10371    0.53438    0.41574    1.000
    N572     N        0.07095    0.67938    0.44336    1.000
    N573     N        0.09973    0.64743    0.38138    1.000
    N574     N        0.09499    0.72544    0.37216    1.000
    Si575    Si       0.08397    0.73438    0.48915    1.000
    N576     N        0.10795    0.56089    0.47762    1.000
    N577     N        0.08204    0.53411    0.53134    1.000
    N578     N        0.07952    0.61267    0.59505    1.000
    N579     N        0.08726    0.54782    0.60496    1.000
    Si580    Si       0.08579    0.66161    0.65559    1.000
    N581     N        0.07412    0.71604    0.53490    1.000
    Si582    Si       0.08214    0.65106    0.57840    1.000
    N583     N        0.09396    0.67277    0.61300    1.000
    Si584    Si       0.07048    0.76100    0.54610    1.000
    N585     N        0.08171    0.57195    0.68688    1.000
    N586     N        0.09709    0.51787    0.72336    1.000
    N587     N        0.10146    0.61810    0.73520    1.000
    Si588    Si       0.09995    0.51564    0.63292    1.000
    Si589    Si       0.10387    0.73377    0.66241    1.000
    N590     N        0.08655    0.69682    0.67858    1.000
    N591     N        0.05031    0.63877    0.65675    1.000
    N592     N        0.04906    0.73948    0.72166    1.000
    N593     N        0.06620    0.75180    0.64858    1.000
    Si594    Si       0.10845    0.60593    0.69412    1.000
    Si595    Si       0.05758    0.50829    0.55525    1.000
    N596     N        0.07099    0.57651    0.85365    1.000
    Si597    Si       0.07587    0.62556    0.76952    1.000
    N598     N        0.09799    0.51629    0.79760    1.000
    Si599    Si       0.06669    0.61688    0.86828    1.000
    N600     N        0.10233    0.59817    0.79226    1.000
    N601     N        0.06632    0.66581    0.77980    1.000
    Si602    Si       0.08633    0.69375    0.80424    1.000
    Si603    Si       0.07136    0.74115    0.85286    1.000
    N604     N        0.06285    0.69927    0.84225    1.000
    N605     N        0.08070    0.73427    0.78696    1.000
    Si606    Si       0.06567    0.53695    0.94992    1.000
    N607     N        0.09634    0.56021    0.93049    1.000
    Si608    Si       0.09915    0.60373    0.93341    1.000
    N609     N        0.08600    0.60992    0.97494    1.000
    N610     N        0.06772    0.62460    0.91097    1.000
    Si611    Si       0.05099    0.58573    0.98335    1.000
    N612     N        0.04913    0.51275    0.87994    1.000
    N613     N        0.10051    0.70302    0.95247    1.000
    Si614    Si       0.10019    0.73681    0.92484    1.000
    N615     N        0.06685    0.73819    0.89684    1.000
    Si616    Si       0.06259    0.69335    0.97539    1.000
    N617     N        0.07227    0.54663    0.99598    1.000
    Si618    Si       0.06373    0.79059    0.10594    1.000
    N619     N        0.08633    0.78882    0.06730    1.000
    Si620    Si       0.07294    0.77828    0.02830    1.000
    N621     N        0.06815    0.91753    0.08489    1.000
    N622     N        0.09252    0.94668    0.02522    1.000
    Si623    Si       0.05691    0.94473    0.05267    1.000
    N624     N        0.05272    0.82331    0.17982    1.000
    N625     N        0.09344    0.80793    0.13241    1.000
    Si626    Si       0.08126    0.84086    0.21133    1.000
    Si627    Si       0.08698    0.79370    0.17294    1.000
    N628     N        0.05076    0.85386    0.23824    1.000
    N629     N        0.10228    0.87247    0.19279    1.000
    Si630    Si       0.05096    0.94638    0.17988    1.000
    N631     N        0.05774    0.97461    0.20981    1.000
    N632     N        0.08553    0.93132    0.16076    1.000
    Si633    Si       0.08134    0.88752    0.15555    1.000
    N634     N        0.04946    0.98415    0.06850    1.000
    N635     N        0.07776    0.86991    0.29766    1.000
    N636     N        0.08613    0.80652    0.27488    1.000
    Si637    Si       0.05602    0.83566    0.28073    1.000
    N638     N        0.08300    0.84874    0.36291    1.000
    N639     N        0.10036    0.78726    0.33831    1.000
    N640     N        0.06836    0.98730    0.44515    1.000
    Si641    Si       0.07881    0.98070    0.29972    1.000
    N642     N        0.08402    0.93891    0.31120    1.000
    Si643    Si       0.08085    0.91021    0.27879    1.000
    Si644    Si       0.09917    0.93544    0.35244    1.000
    Si645    Si       0.06612    0.90291    0.41168    1.000
    N646     N        0.06204    0.92387    0.37316    1.000
    N647     N        0.10477    0.92848    0.42590    1.000
    Si648    Si       0.04809    0.78816    0.41065    1.000
    N649     N        0.08964    0.78727    0.40237    1.000
    N650     N        0.08797    0.86874    0.43084    1.000
    Si651    Si       0.07937    0.83519    0.45626    1.000
    Si652    Si       0.10754    0.96395    0.45200    1.000
    N653     N        0.04595    0.92335    0.25802    1.000
    N654     N        0.06768    0.00549    0.33454    1.000
    N655     N        0.05939    0.83243    0.56173    1.000
    N656     N        0.09270    0.77168    0.51028    1.000
    N657     N        0.09950    0.77583    0.57562    1.000
    Si658    Si       0.10278    0.81878    0.56935    1.000
    N659     N        0.08168    0.98418    0.70704    1.000
    N660     N        0.08253    0.92147    0.73287    1.000
    Si661    Si       0.09893    0.97337    0.52379    1.000
    Si662    Si       0.08962    0.91746    0.56942    1.000
    N663     N        0.05704    0.97385    0.51980    1.000
    N664     N        0.05113    0.00158    0.58202    1.000
    N665     N        0.07096    0.85080    0.49666    1.000
    N666     N        0.05763    0.81741    0.62900    1.000
    N667     N        0.07908    0.80608    0.68924    1.000
    N668     N        0.09516    0.86744    0.66689    1.000
    Si669    Si       0.06691    0.84801    0.69659    1.000
    Si670    Si       0.09766    0.82919    0.63924    1.000
    N671     N        0.06881    0.85406    0.73947    1.000
    Si672    Si       0.09128    0.96328    0.74323    1.000
    Si673    Si       0.10157    0.97462    0.67136    1.000
    N674     N        0.07519    0.98013    0.63938    1.000
    N675     N        0.04994    0.91962    0.65196    1.000
    Si676    Si       0.09153    0.90727    0.64951    1.000
    N677     N        0.10346    0.90284    0.60783    1.000
    N678     N        0.08826    0.80294    0.78629    1.000
    Si679    Si       0.05138    0.81548    0.86187    1.000
    Si680    Si       0.10128    0.83523    0.76041    1.000
    N681     N        0.04989    0.77586    0.84038    1.000
    Si682    Si       0.04747    0.80208    0.80371    1.000
    N683     N        0.09143    0.96785    0.92200    1.000
    N684     N        0.05501    0.89331    0.79041    1.000
    N685     N        0.08060    0.99019    0.77525    1.000
    N686     N        0.09149    0.97051    0.85512    1.000
    Si687    Si       0.09738    0.89585    0.80401    1.000
    N688     N        0.09684    0.89467    0.84881    1.000
    Si689    Si       0.05527    0.89443    0.74714    1.000
    Si690    Si       0.08312    0.87629    0.88500    1.000
    Si691    Si       0.08251    0.79807    0.96830    1.000
    N692     N        0.08637    0.83119    0.88413    1.000
    N693     N        0.06583    0.83700    0.95496    1.000
    Si694    Si       0.09878    0.86724    0.95352    1.000
    N695     N        0.10178    0.77920    0.93460    1.000
    Si696    Si       0.06174    0.97161    0.89165    1.000
    N697     N        0.09997    0.89730    0.91915    1.000
    N698     N        0.15075    0.06384    0.04818    1.000
    Si699    Si       0.14591    0.05366    0.08980    1.000
    Si700    Si       0.12230    0.09140    0.02510    1.000
    N701     N        0.14005    0.01492    0.10765    1.000
    N702     N        0.12179    0.08280    0.10900    1.000
    N703     N        0.13786    0.13165    0.03410    1.000
    Si704    Si       0.12734    0.15834    0.06756    1.000
    N705     N        0.13312    0.20295    0.06542    1.000
    N706     N        0.13701    0.16060    0.11056    1.000
    Si707    Si       0.12502    0.20353    0.10995    1.000
    Si708    Si       0.13356    0.25426    0.15361    1.000
    N709     N        0.10613    0.24906    0.11680    1.000
    N710     N        0.11056    0.11316    0.17891    1.000
    Si711    Si       0.13696    0.09497    0.14867    1.000
    N712     N        0.14767    0.05441    0.16256    1.000
    Si713    Si       0.12258    0.02286    0.14806    1.000
    N714     N        0.10863    0.02062    0.22045    1.000
    N715     N        0.15918    0.21798    0.13476    1.000
    N716     N        0.14604    0.04589    0.27701    1.000
    N717     N        0.12263    0.04810    0.34653    1.000
    Si718    Si       0.15482    0.11919    0.26292    1.000
    Si719    Si       0.15111    0.06289    0.31769    1.000
    N720     N        0.15729    0.10618    0.30612    1.000
    N721     N        0.11456    0.11122    0.25110    1.000
    Si722    Si       0.10937    0.02789    0.26313    1.000
    Si723    Si       0.15804    0.13193    0.34006    1.000
    N724     N        0.11408    0.13446    0.34891    1.000
    N725     N        0.13105    0.23117    0.33540    1.000
    Si726    Si       0.15340    0.20124    0.31380    1.000
    N727     N        0.11945    0.17694    0.29473    1.000
    Si728    Si       0.12891    0.18411    0.25445    1.000
    N729     N        0.14098    0.22972    0.25633    1.000
    Si730    Si       0.15427    0.25056    0.36520    1.000
    Si731    Si       0.12540    0.02286    0.47438    1.000
    N732     N        0.15414    0.06169    0.40784    1.000
    Si733    Si       0.11606    0.06198    0.38836    1.000
    N734     N        0.15682    0.05214    0.48034    1.000
    N735     N        0.13959    0.13738    0.41335    1.000
    N736     N        0.11368    0.18862    0.45280    1.000
    Si737    Si       0.12587    0.14734    0.45496    1.000
    Si738    Si       0.14521    0.19861    0.48047    1.000
    N739     N        0.15968    0.15629    0.47935    1.000
    Si740    Si       0.16687    0.24301    0.42377    1.000
    Si741    Si       0.14140    0.05393    0.58536    1.000
    Si742    Si       0.15214    0.07716    0.51364    1.000
    N743     N        0.11337    0.08936    0.58368    1.000
    N744     N        0.11275    0.09391    0.51484    1.000
    N745     N        0.12439    0.01420    0.59097    1.000
    N746     N        0.12683    0.00426    0.51331    1.000
    Si747    Si       0.11628    0.15609    0.72356    1.000
    N748     N        0.14928    0.21427    0.57389    1.000
    Si749    Si       0.11788    0.19154    0.55507    1.000
    N750     N        0.12940    0.14966    0.55578    1.000
    N751     N        0.12297    0.21303    0.51555    1.000
    N752     N        0.15259    0.16472    0.61856    1.000
    Si753    Si       0.16347    0.20583    0.61838    1.000
    Si754    Si       0.10825    0.21404    0.74581    1.000
    N755     N        0.15563    0.05750    0.62638    1.000
    Si756    Si       0.14469    0.06014    0.72589    1.000
    N757     N        0.12236    0.06610    0.68997    1.000
    Si758    Si       0.12608    0.04253    0.65494    1.000
    N759     N        0.11902    0.20006    0.70560    1.000
    N760     N        0.11946    0.13655    0.68409    1.000
    Si761    Si       0.15526    0.15153    0.66173    1.000
    Si762    Si       0.15246    0.21725    0.68367    1.000
    N763     N        0.14073    0.23267    0.64330    1.000
    N764     N        0.10501    0.11664    0.74047    1.000
    N765     N        0.15545    0.16011    0.74481    1.000
    N766     N        0.14310    0.10337    0.86123    1.000
    N767     N        0.11771    0.05635    0.76143    1.000
    N768     N        0.15332    0.10861    0.79227    1.000
    Si769    Si       0.11275    0.09648    0.77772    1.000
    N770     N        0.13293    0.02682    0.86392    1.000
    Si771    Si       0.10745    0.12709    0.84740    1.000
    Si772    Si       0.16170    0.01852    0.83369    1.000
    Si773    Si       0.10764    0.02186    0.78478    1.000
    Si774    Si       0.15056    0.19724    0.84265    1.000
    N775     N        0.14129    0.22188    0.77043    1.000
    N776     N        0.13058    0.23723    0.83633    1.000
    N777     N        0.11569    0.17098    0.83970    1.000
    Si778    Si       0.14427    0.20449    0.98177    1.000
    Si779    Si       0.14737    0.03096    0.90407    1.000
    Si780    Si       0.15910    0.10248    0.90073    1.000
    N781     N        0.12435    0.10731    0.92499    1.000
    N782     N        0.11288    0.03900    0.92828    1.000
    Si783    Si       0.14063    0.25479    0.79719    1.000
    N784     N        0.14114    0.21984    0.94128    1.000
    N785     N        0.12372    0.29575    0.06351    1.000
    N786     N        0.14496    0.34696    0.10732    1.000
    Si787    Si       0.15865    0.32087    0.07469    1.000
    N788     N        0.10935    0.36311    0.05180    1.000
    Si789    Si       0.14790    0.38270    0.05124    1.000
    N790     N        0.15130    0.41340    0.08702    1.000
    N791     N        0.14274    0.40346    0.01304    1.000
    Si792    Si       0.11587    0.43788    0.09934    1.000
    Si793    Si       0.11262    0.50770    0.06612    1.000
    N794     N        0.13025    0.29991    0.15823    1.000
    Si795    Si       0.11827    0.33458    0.13935    1.000
    N796     N        0.13049    0.37216    0.15981    1.000
    N797     N        0.11161    0.29496    0.24079    1.000
    N798     N        0.12447    0.42557    0.20552    1.000
    Si799    Si       0.11085    0.50256    0.13883    1.000
    N800     N        0.11810    0.45874    0.13863    1.000
    Si801    Si       0.15744    0.38736    0.12647    1.000
    Si802    Si       0.14417    0.44436    0.17242    1.000
    Si803    Si       0.14169    0.42958    0.24474    1.000
    Si804    Si       0.10515    0.38991    0.19224    1.000
    N805     N        0.14518    0.34722    0.28375    1.000
    Si806    Si       0.14829    0.31629    0.25327    1.000
    Si807    Si       0.16214    0.31292    0.31654    1.000
    N808     N        0.11535    0.31129    0.32388    1.000
    Si809    Si       0.15777    0.46978    0.36220    1.000
    N810     N        0.13165    0.44720    0.33557    1.000
    Si811    Si       0.13660    0.46874    0.29703    1.000
    Si812    Si       0.11560    0.41094    0.34999    1.000
    N813     N        0.15494    0.39242    0.36173    1.000
    N814     N        0.10932    0.44484    0.27012    1.000
    N815     N        0.16908    0.28652    0.28120    1.000
    N816     N        0.11575    0.33663    0.39873    1.000
    N817     N        0.12343    0.31753    0.46863    1.000
    Si818    Si       0.14788    0.36620    0.39681    1.000
    N819     N        0.13072    0.25765    0.40107    1.000
    Si820    Si       0.12778    0.43446    0.48603    1.000
    N821     N        0.14360    0.46493    0.40202    1.000
    Si822    Si       0.12032    0.42914    0.41687    1.000
    N823     N        0.14145    0.39263    0.42941    1.000
    N824     N        0.14569    0.50193    0.46260    1.000
    Si825    Si       0.16797    0.49211    0.42777    1.000
    Si826    Si       0.10647    0.35024    0.30362    1.000
    N827     N        0.13929    0.34007    0.54138    1.000
    N828     N        0.12645    0.28047    0.52548    1.000
    N829     N        0.12626    0.28089    0.58781    1.000
    Si830    Si       0.14679    0.31634    0.50468    1.000
    N831     N        0.15365    0.34405    0.61523    1.000
    Si832    Si       0.11183    0.37352    0.53027    1.000
    N833     N        0.10945    0.47283    0.63152    1.000
    Si834    Si       0.11053    0.44665    0.55486    1.000
    Si835    Si       0.15662    0.49183    0.50331    1.000
    Si836    Si       0.14780    0.47295    0.61150    1.000
    N837     N        0.12626    0.46252    0.51839    1.000
    N838     N        0.14650    0.44313    0.57940    1.000
    N839     N        0.13309    0.39332    0.49707    1.000
    Si840    Si       0.11276    0.33405    0.62520    1.000
    Si841    Si       0.11485    0.26469    0.62656    1.000
    Si842    Si       0.13581    0.34232    0.74383    1.000
    N843     N        0.12853    0.38473    0.72916    1.000
    N844     N        0.10731    0.30018    0.65019    1.000
    Si845    Si       0.16643    0.39835    0.70991    1.000
    Si846    Si       0.10628    0.30837    0.55455    1.000
    Si847    Si       0.14559    0.25671    0.55749    1.000
    N848     N        0.13491    0.35008    0.78615    1.000
    Si849    Si       0.12225    0.32195    0.81726    1.000
    N850     N        0.15495    0.30881    0.84009    1.000
    N851     N        0.11091    0.28598    0.79195    1.000
    Si852    Si       0.16399    0.42054    0.93382    1.000
    N853     N        0.13487    0.38211    0.84727    1.000
    Si854    Si       0.13838    0.39232    0.80567    1.000
    N855     N        0.16072    0.48841    0.81414    1.000
    N856     N        0.11727    0.49195    0.86758    1.000
    N857     N        0.14379    0.48261    0.75020    1.000
    N858     N        0.11384    0.28150    0.89009    1.000
    Si859    Si       0.11946    0.35414    0.92419    1.000
    N860     N        0.15035    0.34042    0.89935    1.000
    Si861    Si       0.15135    0.29912    0.88401    1.000
    N862     N        0.15068    0.46282    0.92890    1.000
    N863     N        0.13288    0.39048    0.94419    1.000
    Si864    Si       0.13165    0.47184    0.96548    1.000
    Si865    Si       0.15282    0.48995    0.89462    1.000
    Si866    Si       0.11356    0.40506    0.98036    1.000
    Si867    Si       0.16516    0.46166    0.78240    1.000
    Si868    Si       0.14143    0.56227    0.10336    1.000
    N869     N        0.12642    0.52129    0.10383    1.000
    N870     N        0.12402    0.61606    0.03229    1.000
    Si871    Si       0.15528    0.58710    0.02365    1.000
    N872     N        0.13378    0.51674    0.03286    1.000
    N873     N        0.10496    0.63906    0.21470    1.000
    Si874    Si       0.16428    0.73032    0.11833    1.000
    N875     N        0.15930    0.57412    0.06573    1.000
    Si876    Si       0.14291    0.67875    0.07731    1.000
    N877     N        0.12151    0.64623    0.09183    1.000
    N878     N        0.11978    0.70939    0.05655    1.000
    N879     N        0.12656    0.74938    0.11192    1.000
    Si880    Si       0.16000    0.72271    0.03747    1.000
    Si881    Si       0.10681    0.63788    0.99922    1.000
    Si882    Si       0.12063    0.60640    0.19159    1.000
    N883     N        0.15021    0.58482    0.21160    1.000
    N884     N        0.13514    0.62388    0.15444    1.000
    N885     N        0.11922    0.52027    0.17537    1.000
    Si886    Si       0.14103    0.55895    0.24400    1.000
    N887     N        0.13650    0.70062    0.21047    1.000
    Si888    Si       0.12829    0.66775    0.23979    1.000
    Si889    Si       0.10802    0.64658    0.13250    1.000
    N890     N        0.14564    0.72899    0.99781    1.000
    Si891    Si       0.14628    0.53441    0.31296    1.000
    N892     N        0.12324    0.54835    0.34935    1.000
    N893     N        0.14339    0.57296    0.28352    1.000
    Si894    Si       0.14537    0.61472    0.29322    1.000
    N895     N        0.11999    0.50759    0.29356    1.000
    N896     N        0.15229    0.64939    0.26951    1.000
    N897     N        0.14316    0.68618    0.34357    1.000
    Si898    Si       0.14425    0.72219    0.31961    1.000
    Si899    Si       0.11058    0.52400    0.45592    1.000
    N900     N        0.14113    0.59272    0.40543    1.000
    Si901    Si       0.13533    0.55214    0.39140    1.000
    Si902    Si       0.11181    0.62380    0.41606    1.000
    N903     N        0.11811    0.70523    0.49093    1.000
    Si904    Si       0.10948    0.74841    0.41046    1.000
    N905     N        0.13535    0.69926    0.41261    1.000
    Si906    Si       0.11249    0.68645    0.45042    1.000
    N907     N        0.13482    0.64671    0.44742    1.000
    Si908    Si       0.11318    0.68738    0.37669    1.000
    N909     N        0.10618    0.62278    0.31042    1.000
    N910     N        0.12432    0.58969    0.54562    1.000
    N911     N        0.15181    0.52978    0.52500    1.000
    N912     N        0.15072    0.58051    0.60905    1.000
    N913     N        0.15064    0.51554    0.59465    1.000
    Si914    Si       0.11673    0.55627    0.51996    1.000
    Si915    Si       0.14266    0.62875    0.53747    1.000
    Si916    Si       0.11007    0.58135    0.58911    1.000
    N917     N        0.13904    0.71639    0.56741    1.000
    Si918    Si       0.13132    0.69237    0.60559    1.000
    Si919    Si       0.11424    0.69851    0.53507    1.000
    N920     N        0.11211    0.65744    0.54639    1.000
    Si921    Si       0.13498    0.75313    0.59057    1.000
    N922     N        0.12983    0.53084    0.65889    1.000
    N923     N        0.14349    0.58024    0.70079    1.000
    Si924    Si       0.11492    0.54486    0.69653    1.000
    Si925    Si       0.15889    0.54248    0.62934    1.000
    N926     N        0.15972    0.66792    0.62368    1.000
    Si927    Si       0.15991    0.65832    0.66583    1.000
    N928     N        0.12876    0.73066    0.62764    1.000
    N929     N        0.11935    0.63745    0.66870    1.000
    N930     N        0.16071    0.69779    0.68203    1.000
    N931     N        0.12956    0.75561    0.69019    1.000
    N932     N        0.13712    0.55376    0.84144    1.000
    Si933    Si       0.12142    0.51800    0.76075    1.000
    Si934    Si       0.13231    0.59626    0.76023    1.000
    N935     N        0.14670    0.55440    0.76131    1.000
    Si936    Si       0.12733    0.51328    0.82916    1.000
    N937     N        0.15956    0.62784    0.76792    1.000
    N938     N        0.10913    0.62362    0.85554    1.000
    N939     N        0.15507    0.66003    0.89114    1.000
    Si940    Si       0.13949    0.65350    0.85037    1.000
    N941     N        0.12524    0.67821    0.81484    1.000
    Si942    Si       0.15917    0.66548    0.78895    1.000
    N943     N        0.11008    0.75415    0.84235    1.000
    Si944    Si       0.13963    0.55323    0.94118    1.000
    N945     N        0.14104    0.59911    0.92713    1.000
    N946     N        0.15987    0.53399    0.90380    1.000
    N947     N        0.14533    0.56697    0.98770    1.000
    N948     N        0.12273    0.51302    0.96314    1.000
    N949     N        0.13687    0.72799    0.89977    1.000
    N950     N        0.14438    0.65526    0.98550    1.000
    Si951    Si       0.14058    0.69479    0.96888    1.000
    Si952    Si       0.14260    0.75897    0.86972    1.000
    Si953    Si       0.10811    0.58548    0.83266    1.000
    Si954    Si       0.11534    0.53738    0.99865    1.000
    N955     N        0.14863    0.81926    0.09400    1.000
    Si956    Si       0.12899    0.78300    0.08226    1.000
    Si957    Si       0.14378    0.77242    0.00562    1.000
    N958     N        0.15105    0.76797    0.04883    1.000
    N959     N        0.10577    0.79173    0.00300    1.000
    Si960    Si       0.11917    0.91390    0.02430    1.000
    N961     N        0.14401    0.98256    0.04600    1.000
    N962     N        0.13090    0.89377    0.06011    1.000
    Si963    Si       0.14699    0.97657    0.08863    1.000
    N964     N        0.12569    0.94451    0.10984    1.000
    Si965    Si       0.10920    0.90724    0.09688    1.000
    Si966    Si       0.10924    0.98832    0.02056    1.000
    N967     N        0.10622    0.87408    0.12367    1.000
    Si968    Si       0.12569    0.83626    0.12541    1.000
    N969     N        0.15474    0.84671    0.15710    1.000
    Si970    Si       0.14365    0.87892    0.18335    1.000
    Si971    Si       0.12593    0.94548    0.15476    1.000
    Si972    Si       0.14297    0.99664    0.20995    1.000
    N973     N        0.13143    0.98462    0.16848    1.000
    N974     N        0.15396    0.91749    0.16842    1.000
    N975     N        0.15519    0.96047    0.22651    1.000
    N976     N        0.10715    0.80519    0.20956    1.000
    N977     N        0.14549    0.78260    0.27264    1.000
    N978     N        0.13392    0.83934    0.32017    1.000
    Si979    Si       0.12052    0.80206    0.30420    1.000
    N980     N        0.16068    0.88595    0.41355    1.000
    N981     N        0.12324    0.97172    0.35580    1.000
    N982     N        0.12690    0.90161    0.35220    1.000
    Si983    Si       0.13684    0.95107    0.26696    1.000
    N984     N        0.11951    0.91145    0.25943    1.000
    N985     N        0.11621    0.98695    0.27928    1.000
    Si986    Si       0.16056    0.89138    0.26577    1.000
    Si987    Si       0.10612    0.81429    0.37155    1.000
    N988     N        0.14399    0.82445    0.39126    1.000
    N989     N        0.11870    0.81471    0.46184    1.000
    Si990    Si       0.14765    0.80444    0.43021    1.000
    N991     N        0.15095    0.76325    0.41359    1.000
    Si992    Si       0.16360    0.90226    0.37356    1.000
    N993     N        0.13573    0.88305    0.48068    1.000
    N994     N        0.11124    0.94525    0.48959    1.000
    N995     N        0.14151    0.99065    0.44751    1.000
    Si996    Si       0.12492    0.89134    0.43928    1.000
    Si997    Si       0.10430    0.86892    0.33190    1.000
    Si998    Si       0.10943    0.78340    0.24585    1.000
    N999     N        0.12280    0.82527    0.53054    1.000
    N1000    N        0.11975    0.83827    0.60274    1.000
    Si1001   Si       0.12838    0.79263    0.49896    1.000
    Si1002   Si       0.14042    0.87845    0.60439    1.000
    Si1003   Si       0.11051    0.86184    0.51029    1.000
    N1004    N        0.14403    0.88723    0.71577    1.000
    Si1005   Si       0.14261    0.97560    0.58355    1.000
    Si1006   Si       0.13579    0.91525    0.51059    1.000
    N1007    N        0.10901    0.95635    0.56375    1.000
    Si1008   Si       0.16446    0.85188    0.73235    1.000
    Si1009   Si       0.14444    0.86077    0.67666    1.000
    Si1010   Si       0.11886    0.79510    0.70075    1.000
    N1011    N        0.13098    0.82244    0.73281    1.000
    N1012    N        0.13296    0.81780    0.66192    1.000
    Si1013   Si       0.13991    0.92896    0.71045    1.000
    N1014    N        0.11891    0.93408    0.66962    1.000
    N1015    N        0.15436    0.88810    0.64558    1.000
    N1016    N        0.13593    0.95992    0.74150    1.000
    N1017    N        0.13411    0.00418    0.66943    1.000
    N1018    N        0.16112    0.95453    0.61622    1.000
    N1019    N        0.11100    0.89429    0.53977    1.000
    Si1020   Si       0.16708    0.79988    0.63647    1.000
    N1021    N        0.16616    0.78015    0.59806    1.000
    Si1022   Si       0.16073    0.93158    0.65191    1.000
    N1023    N        0.12238    0.86560    0.78600    1.000
    N1024    N        0.14828    0.76442    0.78151    1.000
    Si1025   Si       0.10803    0.76614    0.80010    1.000
    Si1026   Si       0.16113    0.85889    0.80483    1.000
    Si1027   Si       0.11418    0.93560    0.84773    1.000
    Si1028   Si       0.14918    0.95809    0.78437    1.000
    N1029    N        0.12285    0.93133    0.80543    1.000
    N1030    N        0.14330    0.99993    0.79775    1.000
    N1031    N        0.14904    0.79805    0.88517    1.000
    Si1032   Si       0.11615    0.81451    0.90867    1.000
    N1033    N        0.13137    0.84144    0.93856    1.000
    N1034    N        0.14438    0.93723    0.87875    1.000
    N1035    N        0.11980    0.99384    0.97872    1.000
    Si1036   Si       0.12076    0.93514    0.91483    1.000
    Si1037   Si       0.15300    0.98033    0.95563    1.000
    N1038    N        0.11821    0.88716    0.98759    1.000
    N1039    N        0.14689    0.93902    0.94910    1.000
    Si1040   Si       0.15681    0.90819    0.97637    1.000
    N1041    N        0.16141    0.99153    0.91595    1.000
    Si1042   Si       0.19126    0.07930    0.04489    1.000
    N1043    N        0.19834    0.11103    0.07248    1.000
    N1044    N        0.18808    0.05430    0.10448    1.000
    N1045    N        0.19194    0.10210    0.00871    1.000
    Si1046   Si       0.20232    0.09344    0.11383    1.000
    N1047    N        0.19770    0.23368    0.07624    1.000
    N1048    N        0.19184    0.17182    0.03937    1.000
    N1049    N        0.20159    0.17141    0.11068    1.000
    Si1050   Si       0.21167    0.15223    0.07245    1.000
    Si1051   Si       0.17265    0.21030    0.04782    1.000
    Si1052   Si       0.19814    0.21469    0.11423    1.000
    Si1053   Si       0.17420    0.14349    0.01007    1.000
    N1054    N        0.17022    0.22880    0.00908    1.000
    Si1055   Si       0.18733    0.01485    0.12001    1.000
    Si1056   Si       0.18592    0.04530    0.17958    1.000
    N1057    N        0.17330    0.02761    0.21644    1.000
    N1058    N        0.17380    0.11412    0.14024    1.000
    N1059    N        0.20797    0.01250    0.15860    1.000
    N1060    N        0.21734    0.07450    0.18649    1.000
    Si1061   Si       0.21905    0.09923    0.22387    1.000
    N1062    N        0.20680    0.20959    0.21670    1.000
    N1063    N        0.16855    0.25787    0.18392    1.000
    Si1064   Si       0.18801    0.21792    0.17657    1.000
    N1065    N        0.17449    0.17349    0.17826    1.000
    Si1066   Si       0.19004    0.16857    0.21689    1.000
    Si1067   Si       0.16904    0.15846    0.13864    1.000
    Si1068   Si       0.19872    0.25609    0.99963    1.000
    N1069    N        0.18229    0.09272    0.24343    1.000
    N1070    N        0.18563    0.04591    0.33719    1.000
    N1071    N        0.21468    0.03632    0.27655    1.000
    Si1072   Si       0.21069    0.01639    0.31546    1.000
    Si1073   Si       0.18177    0.04958    0.25167    1.000
    N1074    N        0.18720    0.11415    0.36688    1.000
    N1075    N        0.19153    0.22011    0.29917    1.000
    Si1076   Si       0.18043    0.24791    0.26496    1.000
    N1077    N        0.16799    0.17328    0.34237    1.000
    N1078    N        0.16564    0.16153    0.25093    1.000
    N1079    N        0.20745    0.02942    0.44239    1.000
    N1080    N        0.19224    0.10363    0.44651    1.000
    Si1081   Si       0.17679    0.06365    0.44472    1.000
    Si1082   Si       0.18239    0.04139    0.38006    1.000
    Si1083   Si       0.18057    0.12402    0.40919    1.000
    Si1084   Si       0.19115    0.12822    0.48217    1.000
    N1085    N        0.21891    0.06073    0.38802    1.000
    N1086    N        0.20543    0.15988    0.40777    1.000
    Si1087   Si       0.21328    0.22771    0.47683    1.000
    Si1088   Si       0.19669    0.18478    0.37169    1.000
    N1089    N        0.17093    0.22642    0.46286    1.000
    N1090    N        0.17760    0.22013    0.38660    1.000
    Si1091   Si       0.22426    0.09084    0.35769    1.000
    N1092    N        0.22442    0.25593    0.25880    1.000
    N1093    N        0.18204    0.10659    0.58798    1.000
    N1094    N        0.18534    0.10418    0.51640    1.000
    Si1095   Si       0.19723    0.08455    0.55455    1.000
    Si1096   Si       0.16637    0.01260    0.52849    1.000
    N1097    N        0.19784    0.16747    0.55834    1.000
    Si1098   Si       0.19485    0.21395    0.56196    1.000
    N1099    N        0.20523    0.21365    0.60653    1.000
    N1100    N        0.21447    0.21071    0.51712    1.000
    N1101    N        0.17250    0.24534    0.70859    1.000
    N1102    N        0.16563    0.05361    0.54903    1.000
    N1103    N        0.17287    0.02697    0.72323    1.000
    N1104    N        0.17258    0.09477    0.72852    1.000
    Si1105   Si       0.18610    0.08799    0.62814    1.000
    Si1106   Si       0.20246    0.10487    0.69691    1.000
    Si1107   Si       0.21400    0.04340    0.72892    1.000
    N1108    N        0.18089    0.11536    0.66049    1.000
    Si1109   Si       0.21221    0.23397    0.72558    1.000
    Si1110   Si       0.22259    0.17565    0.68337    1.000
    N1111    N        0.17885    0.18369    0.67436    1.000
    Si1112   Si       0.22548    0.17028    0.52456    1.000
    Si1113   Si       0.16376    0.14366    0.57971    1.000
    N1114    N        0.18321    0.05365    0.82539    1.000
    Si1115   Si       0.17179    0.09571    0.82931    1.000
    Si1116   Si       0.17522    0.12424    0.75815    1.000
    N1117    N        0.20520    0.12374    0.83950    1.000
    Si1118   Si       0.22079    0.04381    0.80667    1.000
    N1119    N        0.21380    0.13788    0.77372    1.000
    Si1120   Si       0.17369    0.19267    0.77052    1.000
    N1121    N        0.17828    0.18198    0.81265    1.000
    N1122    N        0.21375    0.20691    0.75994    1.000
    Si1123   Si       0.21451    0.15683    0.81175    1.000
    N1124    N        0.17968    0.06082    0.90705    1.000
    Si1125   Si       0.21730    0.04081    0.92062    1.000
    Si1126   Si       0.21773    0.20408    0.88765    1.000
    N1127    N        0.20969    0.20334    0.93124    1.000
    Si1128   Si       0.19669    0.16103    0.94120    1.000
    N1129    N        0.17615    0.20685    0.87666    1.000
    N1130    N        0.18647    0.13664    0.90663    1.000
    Si1131   Si       0.21946    0.12981    0.87849    1.000
    Si1132   Si       0.17161    0.22996    0.91607    1.000
    N1133    N        0.16785    0.16597    0.97404    1.000
    N1134    N        0.19438    0.30517    0.09193    1.000
    Si1135   Si       0.20666    0.32893    0.02160    1.000
    N1136    N        0.20360    0.28748    0.02716    1.000
    Si1137   Si       0.21302    0.27339    0.06850    1.000
    N1138    N        0.17083    0.34630    0.04061    1.000
    N1139    N        0.20227    0.37768    0.11842    1.000
    Si1140   Si       0.21177    0.33481    0.12161    1.000
    N1141    N        0.20124    0.41854    0.04110    1.000
    Si1142   Si       0.18589    0.44127    0.07642    1.000
    Si1143   Si       0.17302    0.49936    0.02613    1.000
    N1144    N        0.19045    0.48388    0.06561    1.000
    N1145    N        0.21523    0.44457    0.10832    1.000
    Si1146   Si       0.17888    0.42817    0.00478    1.000
    N1147    N        0.16711    0.47355    0.19568    1.000
    Si1148   Si       0.18364    0.48842    0.23178    1.000
    N1149    N        0.17527    0.31970    0.22090    1.000
    N1150    N        0.20092    0.32070    0.16270    1.000
    Si1151   Si       0.21505    0.33397    0.20263    1.000
    Si1152   Si       0.16688    0.30073    0.18224    1.000
    Si1153   Si       0.21655    0.41632    0.14076    1.000
    Si1154   Si       0.21188    0.39436    0.23884    1.000
    N1155    N        0.17210    0.42024    0.15299    1.000
    N1156    N        0.20810    0.50292    0.14080    1.000
    Si1157   Si       0.20642    0.47791    0.17542    1.000
    N1158    N        0.16227    0.46829    0.99936    1.000
    N1159    N        0.19301    0.34424    0.32256    1.000
    Si1160   Si       0.18324    0.37192    0.28754    1.000
    N1161    N        0.22150    0.35997    0.26408    1.000
    N1162    N        0.17348    0.28683    0.35387    1.000
    Si1163   Si       0.17091    0.39431    0.46553    1.000
    N1164    N        0.20895    0.47869    0.43041    1.000
    Si1165   Si       0.20773    0.44567    0.28555    1.000
    N1166    N        0.19676    0.41081    0.30836    1.000
    Si1167   Si       0.19471    0.40902    0.35124    1.000
    N1168    N        0.17030    0.46095    0.26480    1.000
    N1169    N        0.17028    0.39728    0.25233    1.000
    N1170    N        0.19767    0.44945    0.36773    1.000
    N1171    N        0.16686    0.49753    0.33206    1.000
    Si1172   Si       0.19503    0.30293    0.38740    1.000
    Si1173   Si       0.20729    0.29678    0.46017    1.000
    N1174    N        0.18327    0.34251    0.39802    1.000
    N1175    N        0.19187    0.27801    0.42268    1.000
    Si1176   Si       0.22011    0.36248    0.40942    1.000
    N1177    N        0.20609    0.39374    0.43724    1.000
    N1178    N        0.16832    0.44115    0.47038    1.000
    Si1179   Si       0.20813    0.46068    0.47020    1.000
    N1180    N        0.20399    0.32460    0.56534    1.000
    Si1181   Si       0.20872    0.29329    0.53472    1.000
    N1182    N        0.18839    0.30503    0.49705    1.000
    N1183    N        0.18033    0.38586    0.56906    1.000
    Si1184   Si       0.20935    0.39692    0.53906    1.000
    Si1185   Si       0.18391    0.42419    0.59175    1.000
    N1186    N        0.21064    0.43790    0.55622    1.000
    N1187    N        0.20067    0.48651    0.50281    1.000
    Si1188   Si       0.21509    0.49833    0.61068    1.000
    N1189    N        0.18905    0.46466    0.62345    1.000
    N1190    N        0.20114    0.38678    0.49925    1.000
    Si1191   Si       0.16705    0.34503    0.57350    1.000
    N1192    N        0.17646    0.36673    0.68155    1.000
    N1193    N        0.17478    0.32457    0.73213    1.000
    Si1194   Si       0.20232    0.35264    0.71258    1.000
    Si1195   Si       0.18419    0.36450    0.64030    1.000
    N1196    N        0.22450    0.35549    0.62425    1.000
    N1197    N        0.19887    0.38988    0.73724    1.000
    N1198    N        0.18840    0.25793    0.55213    1.000
    Si1199   Si       0.20024    0.43943    0.65888    1.000
    N1200    N        0.18497    0.40678    0.63308    1.000
    N1201    N        0.17411    0.44130    0.69619    1.000
    Si1202   Si       0.17520    0.47785    0.71895    1.000
    Si1203   Si       0.22023    0.47678    0.53982    1.000
    N1204    N        0.20899    0.50539    0.56821    1.000
    Si1205   Si       0.19085    0.30487    0.81814    1.000
    N1206    N        0.20204    0.35881    0.85236    1.000
    N1207    N        0.17953    0.27432    0.78949    1.000
    Si1208   Si       0.19815    0.29562    0.75538    1.000
    N1209    N        0.21660    0.32290    0.78415    1.000
    Si1210   Si       0.16931    0.37229    0.87440    1.000
    Si1211   Si       0.19764    0.49503    0.83762    1.000
    Si1212   Si       0.20782    0.41821    0.76751    1.000
    N1213    N        0.20125    0.46118    0.75607    1.000
    N1214    N        0.17033    0.42023    0.79190    1.000
    Si1215   Si       0.21198    0.43792    0.88543    1.000
    N1216    N        0.17925    0.26996    0.89745    1.000
    Si1217   Si       0.21943    0.27659    0.88320    1.000
    N1218    N        0.18874    0.47407    0.87349    1.000
    N1219    N        0.18145    0.40863    0.89572    1.000
    N1220    N        0.19252    0.41701    0.96402    1.000
    N1221    N        0.19146    0.61379    0.02707    1.000
    Si1222   Si       0.19493    0.59605    0.07065    1.000
    N1223    N        0.19182    0.62611    0.10243    1.000
    N1224    N        0.20018    0.52788    0.01130    1.000
    N1225    N        0.20484    0.73237    0.03510    1.000
    Si1226   Si       0.20753    0.66741    0.10627    1.000
    Si1227   Si       0.17816    0.65253    0.01208    1.000
    N1228    N        0.17023    0.69066    0.10814    1.000
    N1229    N        0.17006    0.67923    0.04390    1.000
    N1230    N        0.18075    0.75475    0.21997    1.000
    N1231    N        0.20691    0.69097    0.20573    1.000
    N1232    N        0.17157    0.56933    0.13397    1.000
    Si1233   Si       0.17611    0.61233    0.14143    1.000
    Si1234   Si       0.19251    0.58828    0.20377    1.000
    Si1235   Si       0.20435    0.54537    0.14733    1.000
    N1236    N        0.19945    0.62250    0.17685    1.000
    N1237    N        0.21979    0.55613    0.18857    1.000
    N1238    N        0.18055    0.73604    0.15883    1.000
    Si1239   Si       0.17341    0.72013    0.19745    1.000
    N1240    N        0.21430    0.67148    0.99502    1.000
    Si1241   Si       0.20600    0.58671    0.32975    1.000
    Si1242   Si       0.20100    0.55042    0.26615    1.000
    N1243    N        0.19641    0.54747    0.31178    1.000
    N1244    N        0.17300    0.61635    0.32641    1.000
    Si1245   Si       0.20913    0.50924    0.32911    1.000
    N1246    N        0.20890    0.58784    0.24408    1.000
    N1247    N        0.20701    0.67366    0.32718    1.000
    Si1248   Si       0.17201    0.65388    0.34824    1.000
    Si1249   Si       0.18450    0.67442    0.28647    1.000
    N1250    N        0.16876    0.71450    0.28403    1.000
    N1251    N        0.16630    0.75234    0.34154    1.000
    N1252    N        0.22175    0.66295    0.26681    1.000
    Si1253   Si       0.17516    0.75219    0.26171    1.000
    N1254    N        0.20251    0.58051    0.37294    1.000
    N1255    N        0.17103    0.52935    0.40326    1.000
    N1256    N        0.19679    0.60928    0.44395    1.000
    Si1257   Si       0.18428    0.60608    0.40286    1.000
    Si1258   Si       0.21039    0.54236    0.39206    1.000
    N1259    N        0.17976    0.64840    0.39025    1.000
    Si1260   Si       0.17406    0.64133    0.46511    1.000
    Si1261   Si       0.18195    0.75464    0.38505    1.000
    Si1262   Si       0.17649    0.68634    0.41250    1.000
    N1263    N        0.19891    0.71456    0.38874    1.000
    N1264    N        0.19062    0.68128    0.45279    1.000
    N1265    N        0.22501    0.56677    0.49312    1.000
    N1266    N        0.17194    0.52831    0.24245    1.000
    N1267    N        0.19561    0.57199    0.55655    1.000
    Si1268   Si       0.18258    0.59738    0.58741    1.000
    Si1269   Si       0.17703    0.53205    0.56091    1.000
    N1270    N        0.21089    0.61509    0.61468    1.000
    N1271    N        0.17575    0.63651    0.56827    1.000
    Si1272   Si       0.19674    0.65656    0.60389    1.000
    Si1273   Si       0.20071    0.65654    0.53582    1.000
    N1274    N        0.21164    0.69510    0.51492    1.000
    N1275    N        0.21587    0.68436    0.57556    1.000
    N1276    N        0.16898    0.63984    0.50723    1.000
    N1277    N        0.21658    0.75589    0.54251    1.000
    N1278    N        0.21493    0.57531    0.67527    1.000
    N1279    N        0.20091    0.52943    0.63660    1.000
    Si1280   Si       0.18404    0.59436    0.69919    1.000
    N1281    N        0.19337    0.51637    0.71081    1.000
    Si1282   Si       0.21832    0.53222    0.67689    1.000
    N1283    N        0.20034    0.58737    0.73875    1.000
    Si1284   Si       0.22629    0.61578    0.65541    1.000
    N1285    N        0.19085    0.63259    0.68055    1.000
    N1286    N        0.18928    0.74169    0.72425    1.000
    Si1287   Si       0.16912    0.73915    0.68463    1.000
    N1288    N        0.20458    0.53778    0.84761    1.000
    Si1289   Si       0.20794    0.61986    0.84288    1.000
    Si1290   Si       0.20228    0.61425    0.77136    1.000
    N1291    N        0.21431    0.53227    0.77463    1.000
    N1292    N        0.21572    0.59350    0.80824    1.000
    Si1293   Si       0.18756    0.54634    0.74500    1.000
    Si1294   Si       0.17052    0.55846    0.86912    1.000
    N1295    N        0.17788    0.75396    0.84241    1.000
    Si1296   Si       0.21628    0.73301    0.84789    1.000
    N1297    N        0.18070    0.69744    0.77326    1.000
    N1298    N        0.17854    0.64762    0.82636    1.000
    Si1299   Si       0.17965    0.74028    0.76456    1.000
    N1300    N        0.17694    0.69481    0.94271    1.000
    Si1301   Si       0.21223    0.67274    0.95297    1.000
    N1302    N        0.18490    0.59812    0.87445    1.000
    Si1303   Si       0.17264    0.62260    0.90916    1.000
    N1304    N        0.20524    0.63139    0.93811    1.000
    N1305    N        0.20716    0.71906    0.88904    1.000
    Si1306   Si       0.16933    0.69944    0.90063    1.000
    Si1307   Si       0.22304    0.69097    0.77806    1.000
    N1308    N        0.18621    0.85218    0.04024    1.000
    Si1309   Si       0.18577    0.82985    0.07852    1.000
    Si1310   Si       0.19971    0.81671    0.01858    1.000
    N1311    N        0.20632    0.85024    0.11113    1.000
    Si1312   Si       0.21844    0.76046    0.06585    1.000
    N1313    N        0.21876    0.80399    0.05970    1.000
    Si1314   Si       0.17986    0.92883    0.20284    1.000
    N1315    N        0.21674    0.96754    0.04097    1.000
    Si1316   Si       0.17387    0.89275    0.04674    1.000
    N1317    N        0.20315    0.90838    0.07384    1.000
    Si1318   Si       0.17791    0.96701    0.02483    1.000
    N1319    N        0.18913    0.97795    0.10105    1.000
    Si1320   Si       0.21544    0.94981    0.08125    1.000
    N1321    N        0.22103    0.93578    0.19490    1.000
    N1322    N        0.20260    0.80088    0.16618    1.000
    Si1323   Si       0.19684    0.83994    0.15185    1.000
    N1324    N        0.20430    0.82499    0.23132    1.000
    N1325    N        0.21774    0.86847    0.17863    1.000
    Si1326   Si       0.20571    0.78946    0.20846    1.000
    Si1327   Si       0.20981    0.76415    0.14315    1.000
    Si1328   Si       0.20772    0.86683    0.22351    1.000
    N1329    N        0.17032    0.88879    0.22267    1.000
    N1330    N        0.16408    0.92476    0.01732    1.000
    N1331    N        0.19629    0.75522    0.10214    1.000
    N1332    N        0.19804    0.80936    0.31781    1.000
    N1333    N        0.18805    0.86967    0.35831    1.000
    Si1334   Si       0.20868    0.81765    0.27513    1.000
    Si1335   Si       0.17565    0.84646    0.32312    1.000
    Si1336   Si       0.20393    0.76782    0.31843    1.000
    N1337    N        0.18476    0.85921    0.28146    1.000
    N1338    N        0.21614    0.76761    0.27478    1.000
    Si1339   Si       0.20769    0.94620    0.29440    1.000
    N1340    N        0.18919    0.98004    0.31645    1.000
    N1341    N        0.17125    0.92862    0.28128    1.000
    Si1342   Si       0.16623    0.97159    0.35435    1.000
    N1343    N        0.20777    0.78924    0.38013    1.000
    N1344    N        0.18740    0.82567    0.43718    1.000
    Si1345   Si       0.17875    0.84825    0.39778    1.000
    N1346    N        0.20756    0.95818    0.43254    1.000
    N1347    N        0.18900    0.93644    0.36716    1.000
    Si1348   Si       0.17993    0.99401    0.42989    1.000
    Si1349   Si       0.22298    0.94120    0.39612    1.000
    N1350    N        0.17714    0.99926    0.38698    1.000
    Si1351   Si       0.20562    0.85219    0.59379    1.000
    Si1352   Si       0.20612    0.78093    0.57887    1.000
    N1353    N        0.21061    0.82176    0.56399    1.000
    Si1354   Si       0.20805    0.77003    0.50259    1.000
    N1355    N        0.17644    0.88177    0.57907    1.000
    Si1356   Si       0.20502    0.95794    0.52733    1.000
    Si1357   Si       0.19981    0.90094    0.54802    1.000
    N1358    N        0.17426    0.92570    0.52215    1.000
    Si1359   Si       0.20376    0.95684    0.60452    1.000
    N1360    N        0.17620    0.98523    0.55994    1.000
    N1361    N        0.19741    0.99364    0.50220    1.000
    N1362    N        0.21985    0.93699    0.56546    1.000
    Si1363   Si       0.21860    0.95035    0.67930    1.000
    N1364    N        0.18215    0.84418    0.69458    1.000
    N1365    N        0.18791    0.77125    0.66184    1.000
    Si1366   Si       0.21428    0.84274    0.66752    1.000
    N1367    N        0.19679    0.83360    0.62997    1.000
    N1368    N        0.20992    0.99360    0.67293    1.000
    N1369    N        0.21426    0.92982    0.64208    1.000
    Si1370   Si       0.16809    0.99438    0.69287    1.000
    N1371    N        0.17492    0.94904    0.69083    1.000
    N1372    N        0.16621    0.77522    0.49432    1.000
    N1373    N        0.18721    0.85948    0.76732    1.000
    Si1374   Si       0.17938    0.78173    0.81001    1.000
    Si1375   Si       0.17420    0.82877    0.86563    1.000
    N1376    N        0.21837    0.83224    0.86339    1.000
    N1377    N        0.16620    0.81935    0.82316    1.000
    N1378    N        0.20995    0.76342    0.78710    1.000
    N1379    N        0.18005    0.89057    0.82810    1.000
    Si1380   Si       0.21653    0.96958    0.81808    1.000
    N1381    N        0.18932    0.94587    0.79103    1.000
    Si1382   Si       0.20989    0.91122    0.80515    1.000
    N1383    N        0.19090    0.98733    0.85023    1.000
    N1384    N        0.20602    0.82615    0.92924    1.000
    Si1385   Si       0.21144    0.79543    0.95769    1.000
    Si1386   Si       0.17161    0.85247    0.93000    1.000
    N1387    N        0.17717    0.79683    0.98947    1.000
    N1388    N        0.16742    0.86460    0.88844    1.000
    N1389    N        0.20489    0.92878    0.89320    1.000
    Si1390   Si       0.17617    0.90311    0.86903    1.000
    N1391    N        0.18650    0.88642    0.95229    1.000
    Si1392   Si       0.18300    0.96583    0.88854    1.000
    Si1393   Si       0.21653    0.90860    0.93328    1.000
    N1394    N        0.18843    0.98265    0.98475    1.000
    Si1395   Si       0.27195    0.05028    0.04241    1.000
    N1396    N        0.23030    0.06004    0.03460    1.000
    N1397    N        0.25994    0.11263    0.00132    1.000
    N1398    N        0.27219    0.01040    0.05949    1.000
    Si1399   Si       0.27791    0.12455    0.03813    1.000
    N1400    N        0.25402    0.14731    0.06631    1.000
    N1401    N        0.27711    0.12087    0.17771    1.000
    N1402    N        0.24163    0.10461    0.12695    1.000
    Si1403   Si       0.25493    0.08253    0.16513    1.000
    N1404    N        0.27184    0.04631    0.15501    1.000
    Si1405   Si       0.27613    0.13019    0.13561    1.000
    Si1406   Si       0.26443    0.20711    0.14944    1.000
    N1407    N        0.22305    0.14164    0.21636    1.000
    N1408    N        0.27878    0.25042    0.22541    1.000
    Si1409   Si       0.24939    0.21762    0.22725    1.000
    N1410    N        0.27511    0.17145    0.12598    1.000
    Si1411   Si       0.26645    0.15155    0.20578    1.000
    N1412    N        0.26521    0.19300    0.19247    1.000
    Si1413   Si       0.25214    0.00931    0.16416    1.000
    N1414    N        0.22373    0.22387    0.14818    1.000
    N1415    N        0.24587    0.07932    0.32077    1.000
    Si1416   Si       0.25704    0.06048    0.28216    1.000
    N1417    N        0.27703    0.02613    0.26651    1.000
    N1418    N        0.25178    0.08822    0.24769    1.000
    N1419    N        0.26014    0.11790    0.36885    1.000
    Si1420   Si       0.28140    0.10088    0.32839    1.000
    Si1421   Si       0.27463    0.15059    0.48561    1.000
    Si1422   Si       0.23646    0.22503    0.29152    1.000
    N1423    N        0.26397    0.24125    0.31933    1.000
    N1424    N        0.25660    0.19709    0.26627    1.000
    Si1425   Si       0.26643    0.15887    0.35382    1.000
    N1426    N        0.23492    0.18969    0.35369    1.000
    Si1427   Si       0.26555    0.22336    0.36002    1.000
    N1428    N        0.27536    0.14276    0.31348    1.000
    Si1429   Si       0.24325    0.04490    0.41937    1.000
    N1430    N        0.26437    0.07943    0.43386    1.000
    N1431    N        0.27505    0.02946    0.39455    1.000
    Si1432   Si       0.28029    0.11185    0.40905    1.000
    Si1433   Si       0.22522    0.01734    0.48061    1.000
    Si1434   Si       0.28020    0.07185    0.47523    1.000
    N1435    N        0.27347    0.14778    0.43717    1.000
    Si1436   Si       0.23300    0.16570    0.43953    1.000
    N1437    N        0.22741    0.15038    0.48226    1.000
    N1438    N        0.23716    0.20753    0.44508    1.000
    N1439    N        0.26097    0.25119    0.39384    1.000
    Si1440   Si       0.25864    0.24378    0.43589    1.000
    N1441    N        0.25076    0.00607    0.32614    1.000
    Si1442   Si       0.26224    0.04529    0.53673    1.000
    Si1443   Si       0.25741    0.08744    0.59627    1.000
    N1444    N        0.23758    0.07236    0.56002    1.000
    N1445    N        0.27363    0.12792    0.59594    1.000
    N1446    N        0.24838    0.05173    0.49572    1.000
    N1447    N        0.27160    0.21068    0.58650    1.000
    N1448    N        0.26828    0.16486    0.52828    1.000
    Si1449   Si       0.24468    0.20568    0.61977    1.000
    N1450    N        0.27320    0.17371    0.74452    1.000
    Si1451   Si       0.25380    0.07248    0.66335    1.000
    N1452    N        0.26871    0.03212    0.66142    1.000
    N1453    N        0.22988    0.07982    0.62835    1.000
    N1454    N        0.24486    0.01206    0.72848    1.000
    N1455    N        0.22539    0.06814    0.69527    1.000
    N1456    N        0.23793    0.21480    0.69582    1.000
    Si1457   Si       0.24704    0.13796    0.74626    1.000
    N1458    N        0.24798    0.17022    0.64485    1.000
    Si1459   Si       0.27469    0.23181    0.68336    1.000
    N1460    N        0.26782    0.23813    0.64133    1.000
    Si1461   Si       0.27807    0.14025    0.63967    1.000
    N1462    N        0.22559    0.13982    0.70659    1.000
    N1463    N        0.25455    0.06743    0.82215    1.000
    Si1464   Si       0.26667    0.07090    0.77800    1.000
    N1465    N        0.27565    0.10884    0.76054    1.000
    Si1466   Si       0.26150    0.07085    0.86479    1.000
    N1467    N        0.22563    0.06031    0.76719    1.000
    N1468    N        0.25092    0.18184    0.81259    1.000
    Si1469   Si       0.25454    0.19975    0.77302    1.000
    Si1470   Si       0.27418    0.18183    0.85034    1.000
    N1471    N        0.28290    0.23448    0.76634    1.000
    Si1472   Si       0.25435    0.09935    0.93376    1.000
    N1473    N        0.24773    0.03409    0.88561    1.000
    N1474    N        0.24488    0.09805    0.89133    1.000
    N1475    N        0.22993    0.06875    0.95433    1.000
    Si1476   Si       0.28197    0.24116    0.89275    1.000
    N1477    N        0.25324    0.19269    0.98832    1.000
    N1478    N        0.24183    0.23833    0.87811    1.000
    Si1479   Si       0.26276    0.15124    0.97892    1.000
    N1480    N        0.27926    0.21979    0.93118    1.000
    N1481    N        0.23961    0.17052    0.87477    1.000
    Si1482   Si       0.24468    0.21819    0.95558    1.000
    N1483    N        0.23461    0.13868    0.94692    1.000
    N1484    N        0.23346    0.25502    0.97375    1.000
    Si1485   Si       0.22955    0.08413    0.99424    1.000
    N1486    N        0.25394    0.27869    0.07385    1.000
    N1487    N        0.23884    0.34818    0.04456    1.000
    Si1488   Si       0.26025    0.32153    0.07016    1.000
    Si1489   Si       0.27153    0.37800    0.10787    1.000
    N1490    N        0.25512    0.33672    0.11025    1.000
    Si1491   Si       0.23640    0.39285    0.04324    1.000
    N1492    N        0.26565    0.40165    0.07253    1.000
    N1493    N        0.24986    0.40044    0.00155    1.000
    Si1494   Si       0.27096    0.43924    0.00411    1.000
    N1495    N        0.25970    0.50224    0.08400    1.000
    Si1496   Si       0.27871    0.49707    0.04579    1.000
    N1497    N        0.25168    0.31544    0.21847    1.000
    N1498    N        0.22568    0.37710    0.20140    1.000
    N1499    N        0.27760    0.48485    0.24449    1.000
    N1500    N        0.28133    0.42629    0.21248    1.000
    Si1501   Si       0.25934    0.39935    0.18565    1.000
    N1502    N        0.23015    0.44210    0.17850    1.000
    Si1503   Si       0.25115    0.45813    0.21871    1.000
    N1504    N        0.25861    0.40241    0.14093    1.000
    N1505    N        0.22324    0.49474    0.21551    1.000
    Si1506   Si       0.22174    0.48697    0.10154    1.000
    N1507    N        0.26097    0.36314    0.31670    1.000
    Si1508   Si       0.26167    0.34603    0.27649    1.000
    N1509    N        0.27226    0.30212    0.28241    1.000
    Si1510   Si       0.23009    0.34976    0.34293    1.000
    Si1511   Si       0.25653    0.28290    0.24725    1.000
    Si1512   Si       0.25870    0.50180    0.28041    1.000
    N1513    N        0.22895    0.43363    0.24906    1.000
    N1514    N        0.22710    0.48171    0.30051    1.000
    N1515    N        0.23521    0.31624    0.37053    1.000
    N1516    N        0.22759    0.32937    0.44335    1.000
    N1517    N        0.23688    0.26490    0.47010    1.000
    Si1518   Si       0.26961    0.29224    0.38279    1.000
    Si1519   Si       0.27063    0.33944    0.44821    1.000
    N1520    N        0.26436    0.36771    0.48471    1.000
    N1521    N        0.26366    0.37392    0.41953    1.000
    Si1522   Si       0.22849    0.47059    0.39171    1.000
    N1523    N        0.22796    0.38704    0.36966    1.000
    N1524    N        0.26094    0.44394    0.40363    1.000
    Si1525   Si       0.26410    0.40304    0.38867    1.000
    N1526    N        0.24380    0.43701    0.47777    1.000
    Si1527   Si       0.23505    0.39561    0.47039    1.000
    Si1528   Si       0.27250    0.27012    0.49791    1.000
    N1529    N        0.25092    0.28765    0.53150    1.000
    Si1530   Si       0.23591    0.34929    0.58320    1.000
    N1531    N        0.27310    0.32645    0.58316    1.000
    N1532    N        0.24521    0.37792    0.55085    1.000
    Si1533   Si       0.27933    0.38035    0.52469    1.000
    N1534    N        0.26406    0.47723    0.53493    1.000
    N1535    N        0.25588    0.48337    0.61234    1.000
    Si1536   Si       0.27557    0.45353    0.50072    1.000
    N1537    N        0.24353    0.35490    0.69489    1.000
    Si1538   Si       0.25693    0.35371    0.65192    1.000
    Si1539   Si       0.27738    0.36577    0.71767    1.000
    Si1540   Si       0.27305    0.27102    0.74418    1.000
    N1541    N        0.27961    0.31748    0.65109    1.000
    N1542    N        0.23033    0.27175    0.73907    1.000
    N1543    N        0.28285    0.38831    0.65156    1.000
    N1544    N        0.24215    0.43991    0.66825    1.000
    Si1545   Si       0.26540    0.47639    0.65205    1.000
    Si1546   Si       0.28318    0.42229    0.67599    1.000
    Si1547   Si       0.28287    0.48714    0.57417    1.000
    Si1548   Si       0.25767    0.33059    0.78325    1.000
    Si1549   Si       0.24082    0.34089    0.85220    1.000
    N1550    N        0.26599    0.35342    0.81898    1.000
    N1551    N        0.26422    0.36449    0.75788    1.000
    N1552    N        0.22323    0.29887    0.84644    1.000
    Si1553   Si       0.27403    0.38682    0.79392    1.000
    Si1554   Si       0.25618    0.44975    0.81983    1.000
    N1555    N        0.24377    0.41713    0.79318    1.000
    N1556    N        0.24767    0.44011    0.86031    1.000
    Si1557   Si       0.22979    0.49065    0.76801    1.000
    N1558    N        0.22899    0.48352    0.81073    1.000
    N1559    N        0.26808    0.48647    0.74579    1.000
    Si1560   Si       0.25923    0.36290    0.98212    1.000
    N1561    N        0.26502    0.34270    0.88664    1.000
    N1562    N        0.24300    0.29237    0.91729    1.000
    Si1563   Si       0.24599    0.29442    0.96037    1.000
    N1564    N        0.23170    0.32870    0.98399    1.000
    N1565    N        0.23592    0.44905    0.91971    1.000
    N1566    N        0.28836    0.30238    0.95527    1.000
    N1567    N        0.25561    0.38328    0.94154    1.000
    Si1568   Si       0.27525    0.44904    0.89316    1.000
    Si1569   Si       0.23410    0.41983    0.95511    1.000
    N1570    N        0.24329    0.45828    0.98000    1.000
    Si1571   Si       0.24934    0.48379    0.94504    1.000
    Si1572   Si       0.26313    0.57797    0.09311    1.000
    Si1573   Si       0.23479    0.60106    0.02295    1.000
    N1574    N        0.26847    0.51990    0.01001    1.000
    N1575    N        0.26993    0.62086    0.09857    1.000
    N1576    N        0.23316    0.57937    0.05978    1.000
    N1577    N        0.26175    0.63415    0.03206    1.000
    N1578    N        0.25739    0.74362    0.07580    1.000
    Si1579   Si       0.26694    0.65503    0.07146    1.000
    N1580    N        0.26892    0.70017    0.01752    1.000
    N1581    N        0.22977    0.67694    0.07084    1.000
    Si1582   Si       0.22654    0.69609    0.03035    1.000
    N1583    N        0.23906    0.55973    0.12695    1.000
    Si1584   Si       0.25936    0.56492    0.16471    1.000
    N1585    N        0.27387    0.60589    0.16697    1.000
    Si1586   Si       0.24427    0.53168    0.21686    1.000
    Si1587   Si       0.28335    0.66055    0.00333    1.000
    Si1588   Si       0.27202    0.63999    0.13660    1.000
    N1589    N        0.25767    0.65570    0.20665    1.000
    Si1590   Si       0.23916    0.68816    0.23444    1.000
    N1591    N        0.23700    0.66695    0.13933    1.000
    Si1592   Si       0.22274    0.65969    0.18045    1.000
    N1593    N        0.24364    0.54022    0.26144    1.000
    Si1594   Si       0.24749    0.58583    0.26510    1.000
    N1595    N        0.23777    0.60433    0.30352    1.000
    N1596    N        0.26147    0.75121    0.40463    1.000
    Si1597   Si       0.23839    0.64894    0.30563    1.000
    N1598    N        0.23376    0.74431    0.33915    1.000
    N1599    N        0.26468    0.71720    0.25334    1.000
    N1600    N        0.27736    0.66862    0.30291    1.000
    Si1601   Si       0.22521    0.70353    0.35469    1.000
    N1602    N        0.26365    0.69144    0.36885    1.000
    N1603    N        0.22794    0.50959    0.36959    1.000
    N1604    N        0.23935    0.55531    0.42119    1.000
    Si1605   Si       0.23185    0.58340    0.45500    1.000
    N1606    N        0.26851    0.60568    0.46218    1.000
    Si1607   Si       0.27801    0.54489    0.40384    1.000
    N1608    N        0.26135    0.68151    0.46993    1.000
    Si1609   Si       0.28082    0.64347    0.47654    1.000
    Si1610   Si       0.22146    0.70250    0.47535    1.000
    N1611    N        0.22267    0.74533    0.46769    1.000
    N1612    N        0.26643    0.58574    0.55365    1.000
    Si1613   Si       0.22916    0.58610    0.52993    1.000
    Si1614   Si       0.27294    0.63018    0.54822    1.000
    N1615    N        0.23432    0.63025    0.52861    1.000
    N1616    N        0.27799    0.64790    0.58819    1.000
    Si1617   Si       0.25548    0.68485    0.59821    1.000
    N1618    N        0.26761    0.71853    0.57182    1.000
    Si1619   Si       0.27385    0.74572    0.61023    1.000
    Si1620   Si       0.22872    0.71584    0.54830    1.000
    N1621    N        0.26912    0.61561    0.65263    1.000
    Si1622   Si       0.28060    0.51298    0.71413    1.000
    N1623    N        0.27510    0.55021    0.73386    1.000
    N1624    N        0.25750    0.51017    0.67762    1.000
    N1625    N        0.24166    0.73336    0.68085    1.000
    N1626    N        0.22949    0.67121    0.63379    1.000
    Si1627   Si       0.23171    0.74369    0.72069    1.000
    N1628    N        0.27833    0.70871    0.63347    1.000
    N1629    N        0.27220    0.67207    0.69432    1.000
    Si1630   Si       0.24957    0.69312    0.66340    1.000
    N1631    N        0.26934    0.54415    0.81042    1.000
    Si1632   Si       0.22631    0.55121    0.81210    1.000
    N1633    N        0.24725    0.71359    0.75023    1.000
    N1634    N        0.24029    0.64029    0.86064    1.000
    Si1635   Si       0.26155    0.67732    0.84428    1.000
    N1636    N        0.23300    0.70223    0.82011    1.000
    Si1637   Si       0.23341    0.53852    0.98904    1.000
    Si1638   Si       0.26844    0.61629    0.88341    1.000
    N1639    N        0.25793    0.59344    0.91776    1.000
    N1640    N        0.24137    0.52709    0.94714    1.000
    Si1641   Si       0.26762    0.55113    0.92369    1.000
    N1642    N        0.23842    0.58129    0.98508    1.000
    Si1643   Si       0.24328    0.60959    0.95381    1.000
    N1644    N        0.24842    0.69254    0.93636    1.000
    Si1645   Si       0.24661    0.72678    0.90948    1.000
    N1646    N        0.27231    0.63948    0.96626    1.000
    N1647    N        0.26951    0.70454    0.87642    1.000
    N1648    N        0.22699    0.64861    0.76721    1.000
    N1649    N        0.28546    0.59216    0.85124    1.000
    Si1650   Si       0.28374    0.66545    0.93363    1.000
    N1651    N        0.28027    0.53230    0.88677    1.000
    N1652    N        0.25898    0.86504    0.06384    1.000
    Si1653   Si       0.25978    0.82083    0.06559    1.000
    Si1654   Si       0.27881    0.76123    0.10875    1.000
    N1655    N        0.28018    0.80382    0.10044    1.000
    Si1656   Si       0.23147    0.88297    0.09391    1.000
    Si1657   Si       0.26006    0.96728    0.04175    1.000
    N1658    N        0.25828    0.95491    0.08427    1.000
    N1659    N        0.27100    0.92510    0.02668    1.000
    Si1660   Si       0.23812    0.90469    0.17031    1.000
    Si1661   Si       0.27265    0.77333    0.18012    1.000
    N1662    N        0.24774    0.77491    0.21408    1.000
    N1663    N        0.27833    0.89577    0.18412    1.000
    Si1664   Si       0.27346    0.94332    0.12293    1.000
    N1665    N        0.26491    0.99559    0.20494    1.000
    Si1666   Si       0.28235    0.89234    0.22811    1.000
    N1667    N        0.24384    0.91078    0.12752    1.000
    Si1668   Si       0.24930    0.95610    0.22243    1.000
    N1669    N        0.27409    0.98454    0.13575    1.000
    N1670    N        0.25256    0.76045    0.14358    1.000
    N1671    N        0.24870    0.83204    0.28061    1.000
    N1672    N        0.25759    0.86364    0.33486    1.000
    Si1673   Si       0.27348    0.82779    0.32380    1.000
    N1674    N        0.27713    0.79823    0.35490    1.000
    Si1675   Si       0.24924    0.87944    0.28877    1.000
    Si1676   Si       0.25326    0.76024    0.25528    1.000
    Si1677   Si       0.26095    0.99108    0.28657    1.000
    N1678    N        0.23480    0.96497    0.26490    1.000
    Si1679   Si       0.27179    0.99972    0.36357    1.000
    N1680    N        0.22978    0.91266    0.31179    1.000
    Si1681   Si       0.22886    0.89166    0.35236    1.000
    N1682    N        0.24052    0.89956    0.39444    1.000
    N1683    N        0.24039    0.88678    0.24408    1.000
    Si1684   Si       0.24599    0.77314    0.37083    1.000
    Si1685   Si       0.25548    0.76424    0.44440    1.000
    N1686    N        0.25870    0.80678    0.44118    1.000
    N1687    N        0.24189    0.87209    0.45855    1.000
    Si1688   Si       0.22742    0.83086    0.45885    1.000
    N1689    N        0.27776    0.93144    0.44543    1.000
    N1690    N        0.25971    0.96456    0.38400    1.000
    Si1691   Si       0.26728    0.89076    0.42889    1.000
    Si1692   Si       0.24042    0.95484    0.45892    1.000
    N1693    N        0.25961    0.99324    0.46574    1.000
    N1694    N        0.24411    0.87139    0.60163    1.000
    Si1695   Si       0.23943    0.83004    0.53327    1.000
    N1696    N        0.23111    0.87396    0.53056    1.000
    N1697    N        0.27595    0.82304    0.55485    1.000
    N1698    N        0.23250    0.76367    0.60995    1.000
    Si1699   Si       0.28334    0.85104    0.58823    1.000
    N1700    N        0.22556    0.81088    0.49805    1.000
    N1701    N        0.24334    0.97703    0.60800    1.000
    Si1702   Si       0.25744    0.96858    0.56959    1.000
    Si1703   Si       0.24967    0.89543    0.49645    1.000
    N1704    N        0.23238    0.93548    0.49567    1.000
    N1705    N        0.25418    0.00402    0.54408    1.000
    Si1706   Si       0.26135    0.81644    0.71099    1.000
    N1707    N        0.25027    0.78240    0.73245    1.000
    N1708    N        0.24808    0.85188    0.73104    1.000
    N1709    N        0.24329    0.80970    0.67203    1.000
    N1710    N        0.24137    0.87667    0.66892    1.000
    Si1711   Si       0.23160    0.76962    0.65516    1.000
    N1712    N        0.28109    0.92359    0.62576    1.000
    Si1713   Si       0.27570    0.96559    0.63600    1.000
    Si1714   Si       0.27814    0.94546    0.71602    1.000
    Si1715   Si       0.24567    0.90074    0.63474    1.000
    N1716    N        0.23572    0.92747    0.71481    1.000
    Si1717   Si       0.25287    0.88779    0.71004    1.000
    N1718    N        0.26625    0.96657    0.67795    1.000
    Si1719   Si       0.24857    0.00630    0.68728    1.000
    N1720    N        0.24332    0.81986    0.79285    1.000
    Si1721   Si       0.24269    0.81073    0.83780    1.000
    Si1722   Si       0.24707    0.78028    0.77421    1.000
    Si1723   Si       0.23185    0.85407    0.77060    1.000
    N1724    N        0.24059    0.76949    0.84727    1.000
    N1725    N        0.24550    0.88805    0.79341    1.000
    N1726    N        0.23590    0.93398    0.83270    1.000
    Si1727   Si       0.26450    0.00139    0.76506    1.000
    Si1728   Si       0.27752    0.91151    0.81701    1.000
    N1729    N        0.23507    0.00451    0.79897    1.000
    Si1730   Si       0.27483    0.78113    0.93474    1.000
    Si1731   Si       0.23697    0.84005    0.90223    1.000
    N1732    N        0.27079    0.81458    0.90660    1.000
    N1733    N        0.23464    0.76287    0.93929    1.000
    N1734    N        0.23481    0.81746    0.99031    1.000
    Si1735   Si       0.27698    0.82247    0.99448    1.000
    Si1736   Si       0.27146    0.00395    0.90600    1.000
    N1737    N        0.24289    0.88376    0.90680    1.000
    Si1738   Si       0.27331    0.93810    0.98551    1.000
    Si1739   Si       0.22848    0.97899    0.96880    1.000
    Si1740   Si       0.24748    0.92346    0.87755    1.000
    N1741    N        0.23645    0.93477    0.96107    1.000
    N1742    N        0.23161    0.00034    0.93272    1.000
    N1743    N        0.26889    0.96017    0.89111    1.000
    N1744    N        0.26499    0.98099    0.99573    1.000
    N1745    N        0.31997    0.02691    0.10553    1.000
    Si1746   Si       0.32302    0.10206    0.08524    1.000
    N1747    N        0.29307    0.08643    0.05735    1.000
    N1748    N        0.29066    0.04571    0.00366    1.000
    N1749    N        0.31852    0.14456    0.07957    1.000
    N1750    N        0.29787    0.16066    0.02299    1.000
    Si1751   Si       0.28660    0.20148    0.01641    1.000
    Si1752   Si       0.28508    0.24886    0.07966    1.000
    N1753    N        0.28355    0.21040    0.05952    1.000
    Si1754   Si       0.28437    0.17480    0.08360    1.000
    Si1755   Si       0.33626    0.16430    0.04544    1.000
    N1756    N        0.30860    0.09551    0.12503    1.000
    Si1757   Si       0.29367    0.02170    0.22642    1.000
    N1758    N        0.30511    0.06513    0.21590    1.000
    Si1759   Si       0.31269    0.05442    0.14010    1.000
    N1760    N        0.33917    0.10887    0.24367    1.000
    N1761    N        0.33300    0.23951    0.17800    1.000
    Si1762   Si       0.32502    0.24912    0.13674    1.000
    N1763    N        0.28474    0.23762    0.12153    1.000
    N1764    N        0.28809    0.14347    0.24254    1.000
    N1765    N        0.29880    0.08382    0.28736    1.000
    N1766    N        0.32124    0.08277    0.34632    1.000
    Si1767   Si       0.33435    0.06843    0.30706    1.000
    Si1768   Si       0.29560    0.09890    0.24523    1.000
    N1769    N        0.32848    0.17642    0.28562    1.000
    N1770    N        0.29535    0.19195    0.36146    1.000
    Si1771   Si       0.34043    0.15405    0.24960    1.000
    Si1772   Si       0.28572    0.16806    0.28006    1.000
    Si1773   Si       0.31898    0.01711    0.39878    1.000
    N1774    N        0.32303    0.11352    0.40986    1.000
    N1775    N        0.31380    0.04215    0.47195    1.000
    N1776    N        0.29097    0.11130    0.49039    1.000
    Si1777   Si       0.32092    0.15172    0.44191    1.000
    Si1778   Si       0.33579    0.19715    0.37361    1.000
    N1779    N        0.29605    0.24934    0.45862    1.000
    N1780    N        0.31035    0.17624    0.47719    1.000
    Si1781   Si       0.31330    0.21909    0.48510    1.000
    N1782    N        0.33820    0.18241    0.41459    1.000
    N1783    N        0.34025    0.02485    0.29973    1.000
    Si1784   Si       0.34517    0.08528    0.38269    1.000
    N1785    N        0.33253    0.25979    0.31062    1.000
    Si1786   Si       0.32171    0.07333    0.57406    1.000
    N1787    N        0.30083    0.06509    0.53776    1.000
    Si1788   Si       0.31767    0.10375    0.52304    1.000
    N1789    N        0.33090    0.11588    0.56339    1.000
    N1790    N        0.29271    0.06092    0.60352    1.000
    N1791    N        0.32381    0.18182    0.56139    1.000
    Si1792   Si       0.31322    0.14801    0.58796    1.000
    Si1793   Si       0.29946    0.23592    0.61222    1.000
    Si1794   Si       0.28564    0.19864    0.54796    1.000
    N1795    N        0.28474    0.23029    0.51680    1.000
    Si1796   Si       0.30205    0.03289    0.63471    1.000
    N1797    N        0.31164    0.07002    0.71442    1.000
    Si1798   Si       0.32289    0.08615    0.67916    1.000
    N1799    N        0.33636    0.05017    0.65343    1.000
    N1800    N        0.28495    0.10213    0.66128    1.000
    N1801    N        0.33532    0.22802    0.63525    1.000
    N1802    N        0.32670    0.14100    0.72276    1.000
    N1803    N        0.31653    0.16090    0.62905    1.000
    N1804    N        0.29994    0.19778    0.68366    1.000
    Si1805   Si       0.30684    0.18088    0.72196    1.000
    Si1806   Si       0.33130    0.18872    0.65635    1.000
    N1807    N        0.33795    0.20610    0.73975    1.000
    Si1808   Si       0.31835    0.12250    0.76258    1.000
    N1809    N        0.29184    0.03565    0.77083    1.000
    N1810    N        0.33894    0.08529    0.77211    1.000
    Si1811   Si       0.32848    0.11660    0.87088    1.000
    Si1812   Si       0.32551    0.05133    0.74920    1.000
    N1813    N        0.30338    0.07844    0.86799    1.000
    Si1814   Si       0.32720    0.04414    0.86986    1.000
    Si1815   Si       0.32568    0.23434    0.76859    1.000
    N1816    N        0.30474    0.15429    0.86414    1.000
    Si1817   Si       0.33152    0.24518    0.84128    1.000
    N1818    N        0.32465    0.15490    0.79041    1.000
    N1819    N        0.30316    0.21755    0.86179    1.000
    Si1820   Si       0.31606    0.06887    0.97928    1.000
    N1821    N        0.29418    0.08699    0.94252    1.000
    Si1822   Si       0.32259    0.12128    0.94540    1.000
    N1823    N        0.33943    0.19645    0.91645    1.000
    Si1824   Si       0.31114    0.19681    0.94992    1.000
    N1825    N        0.29749    0.15516    0.95326    1.000
    Si1826   Si       0.33323    0.18768    0.87410    1.000
    N1827    N        0.31931    0.21537    0.98808    1.000
    N1828    N        0.34150    0.21995    0.80704    1.000
    N1829    N        0.30256    0.32753    0.06252    1.000
    Si1830   Si       0.33021    0.36226    0.07221    1.000
    Si1831   Si       0.33314    0.30161    0.08467    1.000
    N1832    N        0.32462    0.26220    0.07025    1.000
    N1833    N        0.31384    0.37524    0.10972    1.000
    Si1834   Si       0.30296    0.42423    0.06626    1.000
    N1835    N        0.32485    0.39406    0.04164    1.000
    N1836    N        0.33426    0.44540    0.08635    1.000
    N1837    N        0.31982    0.50247    0.06157    1.000
    Si1838   Si       0.32356    0.38254    0.15470    1.000
    Si1839   Si       0.32046    0.49743    0.24696    1.000
    Si1840   Si       0.31732    0.26319    0.21226    1.000
    N1841    N        0.32936    0.29285    0.12998    1.000
    N1842    N        0.31582    0.30534    0.19912    1.000
    N1843    N        0.29280    0.36874    0.18167    1.000
    Si1844   Si       0.28863    0.33742    0.21252    1.000
    N1845    N        0.31866    0.49590    0.13589    1.000
    Si1846   Si       0.32184    0.43999    0.20049    1.000
    N1847    N        0.33006    0.42575    0.15819    1.000
    N1848    N        0.33721    0.41317    0.23313    1.000
    Si1849   Si       0.33985    0.45704    0.12821    1.000
    N1850    N        0.32932    0.48153    0.20625    1.000
    Si1851   Si       0.34470    0.31251    0.16504    1.000
    N1852    N        0.28301    0.45370    0.03959    1.000
    N1853    N        0.30076    0.29261    0.35094    1.000
    N1854    N        0.33131    0.36716    0.31477    1.000
    Si1855   Si       0.33908    0.27253    0.34996    1.000
    Si1856   Si       0.29170    0.27611    0.31088    1.000
    N1857    N        0.28891    0.36385    0.24889    1.000
    Si1858   Si       0.29723    0.46081    0.42560    1.000
    Si1859   Si       0.29559    0.39024    0.32082    1.000
    Si1860   Si       0.31839    0.46384    0.30491    1.000
    N1861    N        0.29554    0.40977    0.35934    1.000
    N1862    N        0.30070    0.42452    0.29081    1.000
    N1863    N        0.29471    0.50030    0.30440    1.000
    Si1864   Si       0.29800    0.40650    0.24997    1.000
    Si1865   Si       0.33573    0.42806    0.36812    1.000
    N1866    N        0.33708    0.46258    0.34406    1.000
    N1867    N        0.29000    0.30905    0.47774    1.000
    Si1868   Si       0.31286    0.28893    0.44448    1.000
    N1869    N        0.28789    0.31098    0.41608    1.000
    N1870    N        0.30536    0.46260    0.46887    1.000
    N1871    N        0.29086    0.50283    0.41586    1.000
    N1872    N        0.33352    0.43968    0.40978    1.000
    N1873    N        0.31190    0.35556    0.53600    1.000
    N1874    N        0.31923    0.29122    0.53101    1.000
    N1875    N        0.30130    0.27540    0.59617    1.000
    Si1876   Si       0.31827    0.32612    0.50689    1.000
    Si1877   Si       0.30063    0.31406    0.61425    1.000
    N1878    N        0.33809    0.33934    0.60519    1.000
    Si1879   Si       0.28536    0.29131    0.55937    1.000
    N1880    N        0.31159    0.45601    0.58433    1.000
    Si1881   Si       0.32851    0.43274    0.54753    1.000
    N1882    N        0.29660    0.41998    0.52206    1.000
    Si1883   Si       0.33008    0.45558    0.62207    1.000
    N1884    N        0.29065    0.26766    0.70470    1.000
    N1885    N        0.30878    0.33876    0.70737    1.000
    Si1886   Si       0.30447    0.30343    0.68281    1.000
    N1887    N        0.33924    0.29727    0.65598    1.000
    Si1888   Si       0.34016    0.47655    0.67952    1.000
    N1889    N        0.29328    0.40636    0.71628    1.000
    N1890    N        0.30412    0.45550    0.65941    1.000
    N1891    N        0.32150    0.50601    0.70461    1.000
    Si1892   Si       0.32797    0.30118    0.78410    1.000
    N1893    N        0.32740    0.28483    0.82501    1.000
    N1894    N        0.28891    0.30214    0.77045    1.000
    Si1895   Si       0.33946    0.42207    0.89287    1.000
    N1896    N        0.31589    0.39257    0.79145    1.000
    Si1897   Si       0.30633    0.48111    0.77002    1.000
    Si1898   Si       0.32759    0.45927    0.83471    1.000
    N1899    N        0.29456    0.46316    0.80748    1.000
    N1900    N        0.33393    0.45021    0.75259    1.000
    Si1901   Si       0.32108    0.40874    0.75102    1.000
    N1902    N        0.30831    0.27571    0.89628    1.000
    N1903    N        0.31692    0.34296    0.91847    1.000
    Si1904   Si       0.31961    0.33071    0.96371    1.000
    N1905    N        0.30285    0.36130    0.98750    1.000
    Si1906   Si       0.28397    0.30876    0.91115    1.000
    Si1907   Si       0.32883    0.39683    0.99690    1.000
    Si1908   Si       0.28388    0.37227    0.91131    1.000
    N1909    N        0.30911    0.47162    0.87171    1.000
    N1910    N        0.32923    0.49677    0.98349    1.000
    N1911    N        0.29220    0.48134    0.93051    1.000
    N1912    N        0.30760    0.43152    0.98285    1.000
    Si1913   Si       0.31075    0.50563    0.89831    1.000
    N1914    N        0.29785    0.41241    0.90094    1.000
    Si1915   Si       0.32235    0.46360    0.95640    1.000
    Si1916   Si       0.34320    0.38527    0.82521    1.000
    N1917    N        0.34037    0.42082    0.84951    1.000
    N1918    N        0.30231    0.56062    0.09642    1.000
    N1919    N        0.32204    0.55834    0.01377    1.000
    Si1920   Si       0.30128    0.51633    0.09875    1.000
    Si1921   Si       0.33425    0.59168    0.09278    1.000
    N1922    N        0.31491    0.65296    0.13370    1.000
    N1923    N        0.29689    0.68770    0.07378    1.000
    Si1924   Si       0.33035    0.67007    0.09626    1.000
    N1925    N        0.32600    0.65691    0.00987    1.000
    N1926    N        0.32064    0.75204    0.05368    1.000
    Si1927   Si       0.28750    0.72381    0.05109    1.000
    Si1928   Si       0.33223    0.73304    0.15833    1.000
    N1929    N        0.31680    0.74504    0.12081    1.000
    Si1930   Si       0.31734    0.51336    0.17694    1.000
    N1931    N        0.32720    0.62824    0.19909    1.000
    Si1932   Si       0.28352    0.62130    0.20643    1.000
    Si1933   Si       0.32172    0.71301    0.21561    1.000
    N1934    N        0.28213    0.59445    0.24006    1.000
    N1935    N        0.29979    0.73766    0.18579    1.000
    N1936    N        0.31964    0.68044    0.24372    1.000
    N1937    N        0.27890    0.53221    0.18626    1.000
    Si1938   Si       0.31686    0.57877    0.26241    1.000
    Si1939   Si       0.30728    0.53681    0.32390    1.000
    N1940    N        0.30468    0.57383    0.30340    1.000
    Si1941   Si       0.29897    0.59264    0.34391    1.000
    N1942    N        0.28813    0.55487    0.36232    1.000
    N1943    N        0.33121    0.54001    0.24867    1.000
    N1944    N        0.32331    0.72746    0.29647    1.000
    Si1945   Si       0.29738    0.69726    0.27801    1.000
    Si1946   Si       0.28959    0.66509    0.34603    1.000
    N1947    N        0.33090    0.67514    0.34557    1.000
    N1948    N        0.31252    0.73864    0.36295    1.000
    Si1949   Si       0.33785    0.71790    0.33562    1.000
    Si1950   Si       0.32845    0.52269    0.42822    1.000
    N1951    N        0.31191    0.56234    0.42380    1.000
    Si1952   Si       0.30950    0.59705    0.44957    1.000
    N1953    N        0.33535    0.58420    0.48087    1.000
    Si1954   Si       0.29590    0.70728    0.45930    1.000
    N1955    N        0.33234    0.69650    0.48092    1.000
    N1956    N        0.28916    0.74855    0.46563    1.000
    N1957    N        0.32069    0.63965    0.45197    1.000
    N1958    N        0.31224    0.69916    0.42093    1.000
    Si1959   Si       0.28771    0.71765    0.39213    1.000
    N1960    N        0.27381    0.62629    0.35510    1.000
    N1961    N        0.34345    0.51633    0.46883    1.000
    Si1962   Si       0.34341    0.67334    0.43718    1.000
    N1963    N        0.30965    0.58625    0.60759    1.000
    Si1964   Si       0.30359    0.56820    0.56837    1.000
    N1965    N        0.29900    0.52603    0.57178    1.000
    N1966    N        0.33766    0.58627    0.54690    1.000
    Si1967   Si       0.33760    0.61198    0.51352    1.000
    N1968    N        0.30258    0.63946    0.51687    1.000
    Si1969   Si       0.30781    0.73207    0.55689    1.000
    N1970    N        0.33414    0.70014    0.55213    1.000
    Si1971   Si       0.33344    0.67287    0.51866    1.000
    Si1972   Si       0.29737    0.62478    0.62070    1.000
    N1973    N        0.31575    0.61249    0.71172    1.000
    Si1974   Si       0.29481    0.63547    0.68063    1.000
    N1975    N        0.33996    0.73394    0.64980    1.000
    N1976    N        0.30517    0.72441    0.71221    1.000
    N1977    N        0.32346    0.64475    0.64941    1.000
    Si1978   Si       0.29906    0.73206    0.66806    1.000
    Si1979   Si       0.28081    0.69306    0.73167    1.000
    Si1980   Si       0.30315    0.61504    0.81941    1.000
    N1981    N        0.30122    0.59701    0.78073    1.000
    N1982    N        0.32280    0.52304    0.77196    1.000
    Si1983   Si       0.29178    0.55356    0.77478    1.000
    N1984    N        0.33279    0.54712    0.84114    1.000
    Si1985   Si       0.29103    0.54923    0.84802    1.000
    Si1986   Si       0.31994    0.62385    0.75222    1.000
    N1987    N        0.33815    0.72528    0.77616    1.000
    N1988    N        0.28905    0.65552    0.81941    1.000
    Si1989   Si       0.31588    0.68361    0.79532    1.000
    N1990    N        0.30552    0.71473    0.82503    1.000
    N1991    N        0.30651    0.66648    0.75615    1.000
    Si1992   Si       0.31941    0.75377    0.80702    1.000
    Si1993   Si       0.30404    0.73036    0.86698    1.000
    N1994    N        0.30443    0.55113    0.94719    1.000
    Si1995   Si       0.30348    0.53208    0.98562    1.000
    N1996    N        0.29173    0.75124    0.91053    1.000
    Si1997   Si       0.32301    0.72697    0.92663    1.000
    N1998    N        0.33969    0.71571    0.88874    1.000
    N1999    N        0.31671    0.68984    0.94710    1.000
    N2000    N        0.29969    0.64079    0.90114    1.000
    Si2001   Si       0.32861    0.79505    0.04377    1.000
    Si2002   Si       0.33121    0.86704    0.08213    1.000
    N2003    N        0.28837    0.80861    0.03370    1.000
    N2004    N        0.30462    0.86299    0.11769    1.000
    N2005    N        0.32490    0.88829    0.04579    1.000
    N2006    N        0.32460    0.96918    0.07872    1.000
    N2007    N        0.33368    0.97917    0.00622    1.000
    Si2008   Si       0.29220    0.99500    0.09607    1.000
    Si2009   Si       0.28372    0.88512    0.02978    1.000
    N2010    N        0.29561    0.84787    0.22964    1.000
    N2011    N        0.29612    0.80850    0.17127    1.000
    Si2012   Si       0.30722    0.82098    0.13008    1.000
    Si2013   Si       0.31992    0.83432    0.19563    1.000
    N2014    N        0.33691    0.86863    0.17512    1.000
    Si2015   Si       0.32538    0.95317    0.21956    1.000
    Si2016   Si       0.30835    0.89012    0.15176    1.000
    N2017    N        0.28702    0.93644    0.23334    1.000
    N2018    N        0.31344    0.92886    0.12928    1.000
    N2019    N        0.33093    0.99762    0.22550    1.000
    N2020    N        0.31004    0.83070    0.30160    1.000
    N2021    N        0.29436    0.77855    0.26126    1.000
    Si2022   Si       0.32637    0.87353    0.30093    1.000
    Si2023   Si       0.28726    0.82272    0.26336    1.000
    Si2024   Si       0.33412    0.76077    0.27165    1.000
    N2025    N        0.29078    0.89029    0.28014    1.000
    Si2026   Si       0.32430    0.98934    0.31952    1.000
    Si2027   Si       0.30928    0.93037    0.27932    1.000
    N2028    N        0.29594    0.96771    0.29475    1.000
    N2029    N        0.31476    0.99610    0.36031    1.000
    N2030    N        0.33343    0.91503    0.31485    1.000
    Si2031   Si       0.31421    0.78084    0.36907    1.000
    Si2032   Si       0.32180    0.76821    0.48584    1.000
    N2033    N        0.30096    0.86278    0.42715    1.000
    N2034    N        0.32435    0.79306    0.41095    1.000
    Si2035   Si       0.30126    0.82045    0.43764    1.000
    N2036    N        0.32203    0.81147    0.47648    1.000
    N2037    N        0.31509    0.92198    0.39078    1.000
    Si2038   Si       0.33219    0.89439    0.41852    1.000
    Si2039   Si       0.29359    0.95363    0.40948    1.000
    Si2040   Si       0.30222    0.00042    0.46624    1.000
    N2041    N        0.31787    0.98508    0.42899    1.000
    Si2042   Si       0.31052    0.93074    0.47801    1.000
    Si2043   Si       0.30822    0.79551    0.55751    1.000
    N2044    N        0.31130    0.76363    0.52699    1.000
    N2045    N        0.30980    0.76083    0.59013    1.000
    N2046    N        0.30373    0.83230    0.62275    1.000
    N2047    N        0.30841    0.88157    0.56974    1.000
    Si2048   Si       0.32488    0.88532    0.53045    1.000
    Si2049   Si       0.32817    0.96066    0.53807    1.000
    Si2050   Si       0.30787    0.91997    0.59254    1.000
    N2051    N        0.29505    0.94966    0.56424    1.000
    N2052    N        0.29332    0.89932    0.50264    1.000
    N2053    N        0.30829    0.99100    0.62356    1.000
    N2054    N        0.29812    0.83379    0.69297    1.000
    Si2055   Si       0.32039    0.87394    0.69931    1.000
    Si2056   Si       0.28571    0.81220    0.65490    1.000
    N2057    N        0.28314    0.77001    0.64732    1.000
    N2058    N        0.29273    0.90516    0.71382    1.000
    N2059    N        0.34445    0.88444    0.66740    1.000
    N2060    N        0.31506    0.97084    0.49729    1.000
    N2061    N        0.32391    0.83472    0.78246    1.000
    Si2062   Si       0.28828    0.81990    0.79961    1.000
    N2063    N        0.31760    0.76813    0.85151    1.000
    N2064    N        0.28897    0.77711    0.78666    1.000
    N2065    N        0.28306    0.82571    0.84170    1.000
    Si2066   Si       0.34084    0.87334    0.77505    1.000
    Si2067   Si       0.31723    0.95083    0.78386    1.000
    N2068    N        0.31347    0.90663    0.78929    1.000
    N2069    N        0.29988    0.95967    0.82166    1.000
    Si2070   Si       0.30352    0.96394    0.86397    1.000
    N2071    N        0.28859    0.96547    0.75374    1.000
    N2072    N        0.28454    0.90479    0.85744    1.000
    Si2073   Si       0.30196    0.80294    0.87580    1.000
    N2074    N        0.29671    0.79380    0.96830    1.000
    N2075    N        0.31865    0.87888    0.91985    1.000
    Si2076   Si       0.33877    0.78858    0.96887    1.000
    N2077    N        0.28521    0.86533    0.99129    1.000
    Si2078   Si       0.30165    0.00421    0.98797    1.000
    Si2079   Si       0.32056    0.90122    0.88203    1.000
    Si2080   Si       0.31336    0.88387    0.96293    1.000
    N2081    N        0.31285    0.92748    0.96989    1.000
    N2082    N        0.33757    0.93983    0.87627    1.000
    N2083    N        0.29997    0.00734    0.94263    1.000
    N2084    N        0.34502    0.81447    0.88037    1.000
    N2085    N        0.30735    0.00635    0.87564    1.000
    N2086    N        0.35814    0.07753    0.08017    1.000
    N2087    N        0.38460    0.07738    0.01808    1.000
    Si2088   Si       0.35965    0.03474    0.08796    1.000
    N2089    N        0.37288    0.01710    0.04983    1.000
    Si2090   Si       0.37585    0.03522    0.00901    1.000
    Si2091   Si       0.39315    0.09351    0.05846    1.000
    Si2092   Si       0.37310    0.11416    0.00053    1.000
    N2093    N        0.38845    0.02570    0.11979    1.000
    N2094    N        0.37082    0.13618    0.03979    1.000
    Si2095   Si       0.35765    0.23598    0.07217    1.000
    N2096    N        0.35491    0.20317    0.04345    1.000
    Si2097   Si       0.36074    0.21726    0.00305    1.000
    N2098    N        0.35411    0.22645    0.11418    1.000
    Si2099   Si       0.39142    0.14619    0.17772    1.000
    N2100    N        0.36091    0.11711    0.18417    1.000
    Si2101   Si       0.38684    0.03512    0.16377    1.000
    N2102    N        0.37150    0.05557    0.23006    1.000
    Si2103   Si       0.37166    0.01235    0.22726    1.000
    N2104    N        0.34574    0.05152    0.16804    1.000
    Si2105   Si       0.34629    0.08069    0.20295    1.000
    N2106    N        0.34351    0.18276    0.21803    1.000
    N2107    N        0.37549    0.18128    0.15696    1.000
    N2108    N        0.39513    0.22939    0.20689    1.000
    Si2109   Si       0.38949    0.20364    0.12442    1.000
    Si2110   Si       0.36158    0.20907    0.18845    1.000
    N2111    N        0.39648    0.25468    0.07036    1.000
    N2112    N        0.37422    0.08324    0.29743    1.000
    Si2113   Si       0.37940    0.09257    0.25526    1.000
    Si2114   Si       0.40140    0.07503    0.33045    1.000
    Si2115   Si       0.38328    0.00971    0.30081    1.000
    Si2116   Si       0.39003    0.21914    0.49062    1.000
    Si2117   Si       0.37005    0.17922    0.30234    1.000
    N2118    N        0.36667    0.18299    0.34543    1.000
    N2119    N        0.38969    0.21612    0.28754    1.000
    N2120    N        0.38249    0.15191    0.26908    1.000
    Si2121   Si       0.36566    0.25138    0.28244    1.000
    N2122    N        0.38726    0.09547    0.36731    1.000
    N2123    N        0.35270    0.04480    0.40103    1.000
    Si2124   Si       0.38637    0.11014    0.47544    1.000
    Si2125   Si       0.38825    0.04025    0.42305    1.000
    Si2126   Si       0.35135    0.05718    0.48626    1.000
    N2127    N        0.38113    0.06980    0.45459    1.000
    Si2128   Si       0.37551    0.17351    0.42918    1.000
    N2129    N        0.39867    0.15833    0.39623    1.000
    N2130    N        0.36563    0.14135    0.45554    1.000
    N2131    N        0.39443    0.20694    0.44806    1.000
    N2132    N        0.33929    0.23982    0.37942    1.000
    N2133    N        0.37285    0.02947    0.50992    1.000
    Si2134   Si       0.37609    0.02463    0.55198    1.000
    Si2135   Si       0.37435    0.10472    0.56814    1.000
    N2136    N        0.36282    0.06215    0.56999    1.000
    N2137    N        0.38178    0.12097    0.60981    1.000
    N2138    N        0.35584    0.09551    0.50408    1.000
    N2139    N        0.36263    0.23967    0.56770    1.000
    Si2140   Si       0.36521    0.19445    0.55811    1.000
    N2141    N        0.38377    0.18849    0.52022    1.000
    N2142    N        0.39351    0.18958    0.59339    1.000
    Si2143   Si       0.39622    0.23320    0.59369    1.000
    N2144    N        0.39489    0.05830    0.62686    1.000
    Si2145   Si       0.37467    0.02977    0.65095    1.000
    N2146    N        0.35934    0.10756    0.67678    1.000
    Si2147   Si       0.38599    0.09545    0.64543    1.000
    N2148    N        0.35676    0.02430    0.73419    1.000
    Si2149   Si       0.39835    0.02875    0.72520    1.000
    N2150    N        0.37352    0.25222    0.69573    1.000
    Si2151   Si       0.37091    0.21122    0.71250    1.000
    N2152    N        0.36651    0.18002    0.68334    1.000
    Si2153   Si       0.36654    0.14030    0.70306    1.000
    N2154    N        0.40379    0.02521    0.68172    1.000
    N2155    N        0.35176    0.23882    0.49745    1.000
    Si2156   Si       0.36106    0.07920    0.80954    1.000
    N2157    N        0.35237    0.04507    0.83492    1.000
    N2158    N        0.35430    0.11267    0.83727    1.000
    Si2159   Si       0.38781    0.02267    0.83619    1.000
    Si2160   Si       0.39411    0.13100    0.82387    1.000
    N2161    N        0.36732    0.17731    0.84966    1.000
    Si2162   Si       0.35782    0.17831    0.80610    1.000
    N2163    N        0.39624    0.16191    0.79131    1.000
    N2164    N        0.36337    0.24785    0.87109    1.000
    N2165    N        0.38283    0.19360    0.97420    1.000
    N2166    N        0.34814    0.03900    0.97589    1.000
    N2167    N        0.35679    0.04173    0.90329    1.000
    N2168    N        0.37165    0.25344    0.93617    1.000
    Si2169   Si       0.37811    0.20904    0.93410    1.000
    Si2170   Si       0.39940    0.04808    0.90459    1.000
    N2171    N        0.33452    0.10775    0.98509    1.000
    N2172    N        0.34499    0.12110    0.91003    1.000
    Si2173   Si       0.34409    0.01761    0.93725    1.000
    N2174    N        0.36143    0.33350    0.07818    1.000
    Si2175   Si       0.39890    0.34199    0.09897    1.000
    Si2176   Si       0.40091    0.49883    0.11525    1.000
    Si2177   Si       0.39356    0.42729    0.00962    1.000
    Si2178   Si       0.35469    0.47419    0.06164    1.000
    N2179    N        0.37166    0.46220    0.02157    1.000
    N2180    N        0.39155    0.49710    0.07241    1.000
    N2181    N        0.39554    0.38559    0.11108    1.000
    N2182    N        0.38337    0.46213    0.12941    1.000
    N2183    N        0.35078    0.26369    0.24297    1.000
    N2184    N        0.39031    0.36940    0.22057    1.000
    N2185    N        0.38048    0.29160    0.17769    1.000
    N2186    N        0.35628    0.35557    0.16136    1.000
    Si2187   Si       0.38331    0.27142    0.21468    1.000
    Si2188   Si       0.39337    0.37193    0.17629    1.000
    Si2189   Si       0.37648    0.40243    0.24347    1.000
    N2190    N        0.39406    0.50571    0.23099    1.000
    N2191    N        0.37887    0.25750    0.00396    1.000
    N2192    N        0.36920    0.29947    0.36668    1.000
    N2193    N        0.39494    0.27839    0.29866    1.000
    Si2194   Si       0.37284    0.37708    0.31934    1.000
    Si2195   Si       0.35981    0.49984    0.35917    1.000
    N2196    N        0.38641    0.40208    0.28637    1.000
    N2197    N        0.37046    0.40223    0.35588    1.000
    Si2198   Si       0.38776    0.47296    0.25828    1.000
    N2199    N        0.34709    0.47412    0.27332    1.000
    N2200    N        0.40022    0.33262    0.42481    1.000
    Si2201   Si       0.38583    0.35320    0.46019    1.000
    N2202    N        0.35635    0.33486    0.48731    1.000
    Si2203   Si       0.38299    0.29454    0.40719    1.000
    N2204    N        0.35277    0.28626    0.43403    1.000
    N2205    N        0.38051    0.46150    0.46327    1.000
    Si2206   Si       0.37145    0.43183    0.42890    1.000
    Si2207   Si       0.34437    0.47600    0.48336    1.000
    N2208    N        0.38576    0.39592    0.44970    1.000
    N2209    N        0.38399    0.34452    0.55537    1.000
    Si2210   Si       0.38803    0.32647    0.51753    1.000
    N2211    N        0.38982    0.28443    0.52685    1.000
    Si2212   Si       0.35224    0.26294    0.53284    1.000
    Si2213   Si       0.34330    0.35563    0.56539    1.000
    Si2214   Si       0.38375    0.41161    0.59342    1.000
    Si2215   Si       0.38690    0.46969    0.54652    1.000
    N2216    N        0.34997    0.46190    0.52380    1.000
    N2217    N        0.34971    0.39980    0.56762    1.000
    N2218    N        0.35177    0.49232    0.64041    1.000
    Si2219   Si       0.34991    0.35423    0.70715    1.000
    N2220    N        0.35774    0.37157    0.66712    1.000
    N2221    N        0.37690    0.32235    0.71914    1.000
    Si2222   Si       0.36091    0.33683    0.64128    1.000
    Si2223   Si       0.37486    0.28006    0.72862    1.000
    Si2224   Si       0.36101    0.25866    0.65300    1.000
    N2225    N        0.35381    0.38232    0.73824    1.000
    N2226    N        0.39501    0.26066    0.62658    1.000
    N2227    N        0.36453    0.42903    0.62805    1.000
    N2228    N        0.38092    0.49599    0.73337    1.000
    N2229    N        0.36478    0.44503    0.69333    1.000
    Si2230   Si       0.37339    0.41219    0.66707    1.000
    Si2231   Si       0.37367    0.45303    0.73798    1.000
    N2232    N        0.39646    0.49295    0.58215    1.000
    Si2233   Si       0.37949    0.36242    0.77020    1.000
    Si2234   Si       0.36482    0.31243    0.83191    1.000
    N2235    N        0.35841    0.32968    0.78839    1.000
    N2236    N        0.34902    0.35008    0.84934    1.000
    N2237    N        0.39949    0.28526    0.82524    1.000
    N2238    N        0.34386    0.27113    0.75738    1.000
    N2239    N        0.38242    0.39032    0.80407    1.000
    N2240    N        0.36010    0.48903    0.82246    1.000
    N2241    N        0.36552    0.38792    0.90962    1.000
    Si2242   Si       0.39966    0.48612    0.84232    1.000
    Si2243   Si       0.35035    0.27237    0.90393    1.000
    Si2244   Si       0.38177    0.28008    0.96813    1.000
    N2245    N        0.37299    0.30852    0.89536    1.000
    Si2246   Si       0.35389    0.34919    0.89316    1.000
    N2247    N        0.35827    0.31529    0.97112    1.000
    N2248    N        0.36985    0.40614    0.98034    1.000
    Si2249   Si       0.36938    0.49608    0.99555    1.000
    N2250    N        0.39311    0.49997    0.95901    1.000
    N2251    N        0.35501    0.45082    0.92553    1.000
    Si2252   Si       0.37829    0.48806    0.91986    1.000
    Si2253   Si       0.38149    0.41552    0.93880    1.000
    N2254    N        0.37296    0.60741    0.01161    1.000
    N2255    N        0.36470    0.57057    0.06984    1.000
    Si2256   Si       0.36292    0.56756    0.02643    1.000
    N2257    N        0.38684    0.53172    0.01204    1.000
    Si2258   Si       0.40139    0.56612    0.09269    1.000
    N2259    N        0.39083    0.53963    0.12497    1.000
    Si2260   Si       0.35804    0.64173    0.03435    1.000
    Si2261   Si       0.34622    0.74174    0.08930    1.000
    N2262    N        0.36179    0.70019    0.08978    1.000
    Si2263   Si       0.34329    0.64399    0.23533    1.000
    N2264    N        0.34744    0.59181    0.13398    1.000
    Si2265   Si       0.36701    0.54080    0.22474    1.000
    Si2266   Si       0.37077    0.56279    0.15408    1.000
    N2267    N        0.35064    0.54004    0.18377    1.000
    N2268    N        0.39668    0.57085    0.23641    1.000
    Si2269   Si       0.34214    0.62945    0.15875    1.000
    N2270    N        0.34955    0.74214    0.23425    1.000
    N2271    N        0.34658    0.70077    0.18281    1.000
    N2272    N        0.38142    0.64582    0.15694    1.000
    Si2273   Si       0.38359    0.74128    0.20440    1.000
    N2274    N        0.38307    0.65830    0.22453    1.000
    Si2275   Si       0.38012    0.67608    0.18537    1.000
    N2276    N        0.33740    0.63263    0.07220    1.000
    Si2277   Si       0.36579    0.57395    0.34362    1.000
    Si2278   Si       0.39181    0.60158    0.26866    1.000
    N2279    N        0.34887    0.53404    0.33567    1.000
    N2280    N        0.34874    0.61014    0.25998    1.000
    N2281    N        0.39330    0.57779    0.30663    1.000
    N2282    N        0.34080    0.60683    0.35118    1.000
    Si2283   Si       0.35959    0.64639    0.36101    1.000
    N2284    N        0.37964    0.73201    0.34198    1.000
    N2285    N        0.38970    0.69434    0.28344    1.000
    Si2286   Si       0.36704    0.55304    0.47909    1.000
    N2287    N        0.38982    0.56512    0.44457    1.000
    Si2288   Si       0.39542    0.54169    0.40713    1.000
    N2289    N        0.35977    0.51567    0.39956    1.000
    N2290    N        0.39442    0.57130    0.37610    1.000
    N2291    N        0.38980    0.67792    0.45740    1.000
    N2292    N        0.35966    0.75636    0.46484    1.000
    Si2293   Si       0.37202    0.71639    0.47862    1.000
    N2294    N        0.36650    0.65914    0.40071    1.000
    N2295    N        0.38247    0.54383    0.51976    1.000
    N2296    N        0.37295    0.55304    0.59639    1.000
    Si2297   Si       0.37594    0.56785    0.55644    1.000
    N2298    N        0.36932    0.61754    0.61495    1.000
    Si2299   Si       0.36601    0.64162    0.65071    1.000
    Si2300   Si       0.34967    0.58061    0.62083    1.000
    Si2301   Si       0.38095    0.51580    0.61710    1.000
    N2302    N        0.36646    0.64493    0.51085    1.000
    N2303    N        0.37479    0.73981    0.58918    1.000
    N2304    N        0.38840    0.71180    0.51824    1.000
    Si2305   Si       0.37663    0.70743    0.56050    1.000
    N2306    N        0.39549    0.67309    0.58051    1.000
    N2307    N        0.36385    0.56198    0.72896    1.000
    N2308    N        0.37919    0.62087    0.68740    1.000
    Si2309   Si       0.34746    0.52331    0.73423    1.000
    Si2310   Si       0.35051    0.58866    0.69761    1.000
    N2311    N        0.34536    0.56677    0.66076    1.000
    N2312    N        0.37352    0.71720    0.71207    1.000
    Si2313   Si       0.37617    0.71808    0.66822    1.000
    N2314    N        0.38697    0.67992    0.64943    1.000
    Si2315   Si       0.39973    0.63079    0.58702    1.000
    Si2316   Si       0.34099    0.73493    0.73431    1.000
    Si2317   Si       0.34632    0.76015    0.61274    1.000
    N2318    N        0.38303    0.55583    0.79410    1.000
    Si2319   Si       0.38311    0.58239    0.76011    1.000
    N2320    N        0.36044    0.61987    0.76245    1.000
    Si2321   Si       0.35722    0.57905    0.85616    1.000
    Si2322   Si       0.35209    0.52768    0.80585    1.000
    N2323    N        0.34597    0.61523    0.83267    1.000
    Si2324   Si       0.37504    0.64699    0.83590    1.000
    N2325    N        0.35829    0.67457    0.80285    1.000
    Si2326   Si       0.37447    0.71805    0.80126    1.000
    N2327    N        0.39194    0.71574    0.84498    1.000
    Si2328   Si       0.38657    0.65308    0.77369    1.000
    Si2329   Si       0.38766    0.72971    0.95675    1.000
    N2330    N        0.37735    0.57002    0.95536    1.000
    Si2331   Si       0.38258    0.61111    0.97029    1.000
    N2332    N        0.34887    0.51937    0.91068    1.000
    Si2333   Si       0.34384    0.55958    0.92813    1.000
    N2334    N        0.34454    0.58893    0.89670    1.000
    Si2335   Si       0.34484    0.63303    0.90524    1.000
    N2336    N        0.34922    0.74871    0.95231    1.000
    N2337    N        0.35510    0.63659    0.94727    1.000
    Si2338   Si       0.37804    0.69879    0.88396    1.000
    N2339    N        0.38308    0.69382    0.98176    1.000
    N2340    N        0.37159    0.65584    0.87920    1.000
    Si2341   Si       0.34625    0.67091    0.97189    1.000
    N2342    N        0.40281    0.71654    0.91684    1.000
    Si2343   Si       0.37349    0.81193    0.10160    1.000
    N2344    N        0.35566    0.79393    0.00955    1.000
    N2345    N        0.37942    0.77174    0.08590    1.000
    Si2346   Si       0.39947    0.79211    0.00292    1.000
    N2347    N        0.34342    0.82709    0.07300    1.000
    Si2348   Si       0.39988    0.88059    0.11491    1.000
    N2349    N        0.36033    0.89332    0.10269    1.000
    Si2350   Si       0.36214    0.89999    0.01834    1.000
    N2351    N        0.37498    0.94077    0.05883    1.000
    Si2352   Si       0.35210    0.97671    0.04516    1.000
    Si2353   Si       0.35093    0.93776    0.09881    1.000
    Si2354   Si       0.37424    0.80014    0.17277    1.000
    N2355    N        0.35574    0.81485    0.20903    1.000
    N2356    N        0.34987    0.81420    0.13745    1.000
    N2357    N        0.36750    0.75897    0.16934    1.000
    N2358    N        0.39614    0.88657    0.21997    1.000
    N2359    N        0.38269    0.96086    0.12320    1.000
    N2360    N        0.35443    0.93386    0.18889    1.000
    Si2361   Si       0.37277    0.89424    0.18425    1.000
    N2362    N        0.39105    0.99892    0.18882    1.000
    Si2363   Si       0.38237    0.95757    0.16734    1.000
    N2364    N        0.40099    0.88314    0.03312    1.000
    N2365    N        0.36258    0.79553    0.27572    1.000
    N2366    N        0.35364    0.79141    0.34810    1.000
    N2367    N        0.35295    0.86668    0.26558    1.000
    N2368    N        0.36071    0.85805    0.32910    1.000
    Si2369   Si       0.38421    0.87611    0.36037    1.000
    Si2370   Si       0.35136    0.81743    0.31363    1.000
    Si2371   Si       0.39106    0.76894    0.36196    1.000
    N2372    N        0.40242    0.00399    0.26234    1.000
    N2373    N        0.36516    0.97278    0.31760    1.000
    Si2374   Si       0.37437    0.93016    0.31431    1.000
    Si2375   Si       0.37548    0.90316    0.25448    1.000
    N2376    N        0.34452    0.93148    0.25251    1.000
    Si2377   Si       0.36155    0.82559    0.48551    1.000
    N2378    N        0.37595    0.82483    0.44333    1.000
    Si2379   Si       0.36361    0.78543    0.42994    1.000
    N2380    N        0.36802    0.87630    0.40181    1.000
    N2381    N        0.39706    0.77512    0.40397    1.000
    Si2382   Si       0.39778    0.84696    0.41346    1.000
    N2383    N        0.39775    0.00337    0.44358    1.000
    N2384    N        0.34494    0.91454    0.45375    1.000
    Si2385   Si       0.38469    0.92619    0.46572    1.000
    Si2386   Si       0.39963    0.00279    0.48614    1.000
    N2387    N        0.39563    0.91447    0.34899    1.000
    Si2388   Si       0.36934    0.83242    0.24626    1.000
    Si2389   Si       0.37885    0.82958    0.54340    1.000
    N2390    N        0.35435    0.85588    0.51596    1.000
    N2391    N        0.34702    0.81550    0.56834    1.000
    N2392    N        0.39187    0.80573    0.50898    1.000
    N2393    N        0.37473    0.86159    0.61128    1.000
    Si2394   Si       0.34507    0.83035    0.61075    1.000
    N2395    N        0.37615    0.99000    0.63321    1.000
    Si2396   Si       0.38803    0.93228    0.52592    1.000
    N2397    N        0.35191    0.98836    0.56418    1.000
    N2398    N        0.34761    0.92211    0.53135    1.000
    Si2399   Si       0.34619    0.97792    0.60689    1.000
    N2400    N        0.34729    0.93243    0.60908    1.000
    N2401    N        0.36149    0.79723    0.63175    1.000
    Si2402   Si       0.38341    0.84835    0.71766    1.000
    N2403    N        0.34900    0.87197    0.73203    1.000
    N2404    N        0.35443    0.77651    0.73685    1.000
    N2405    N        0.39435    0.81351    0.69263    1.000
    Si2406   Si       0.39621    0.78808    0.72930    1.000
    Si2407   Si       0.39633    0.79184    0.65430    1.000
    N2408    N        0.36785    0.96273    0.69574    1.000
    Si2409   Si       0.36466    0.98335    0.73218    1.000
    Si2410   Si       0.36632    0.89993    0.63284    1.000
    Si2411   Si       0.39593    0.96133    0.66164    1.000
    N2412    N        0.38375    0.96408    0.49396    1.000
    Si2413   Si       0.36121    0.78353    0.85316    1.000
    N2414    N        0.38835    0.82203    0.75469    1.000
    N2415    N        0.35938    0.77914    0.80717    1.000
    Si2416   Si       0.35349    0.80221    0.77149    1.000
    N2417    N        0.37965    0.87062    0.79758    1.000
    Si2418   Si       0.38658    0.87372    0.84030    1.000
    N2419    N        0.35249    0.87500    0.86710    1.000
    N2420    N        0.37639    0.97993    0.83201    1.000
    N2421    N        0.35755    0.96479    0.77090    1.000
    Si2422   Si       0.39227    0.98265    0.79003    1.000
    Si2423   Si       0.37764    0.94605    0.86018    1.000
    N2424    N        0.36402    0.97964    0.94318    1.000
    N2425    N        0.35058    0.87293    0.98584    1.000
    Si2426   Si       0.37997    0.84928    0.96190    1.000
    N2427    N        0.38862    0.86737    0.92347    1.000
    Si2428   Si       0.35236    0.84878    0.90560    1.000
    N2429    N        0.35426    0.81870    0.94334    1.000
    Si2430   Si       0.34853    0.95427    0.97437    1.000
    N2431    N        0.38119    0.92958    0.99215    1.000
    N2432    N        0.42362    0.06092    0.06681    1.000
    Si2433   Si       0.41895    0.02370    0.04797    1.000
    N2434    N        0.42003    0.12050    0.07963    1.000
    N2435    N        0.41865    0.02331    0.00443    1.000
    Si2436   Si       0.45265    0.08916    0.08458    1.000
    N2437    N        0.43121    0.15614    0.02190    1.000
    N2438    N        0.44236    0.22829    0.02213    1.000
    Si2439   Si       0.43169    0.15051    0.11329    1.000
    Si2440   Si       0.40541    0.15553    0.05641    1.000
    N2441    N        0.40419    0.17872    0.09344    1.000
    Si2442   Si       0.44153    0.09601    0.15834    1.000
    Si2443   Si       0.43404    0.07435    0.21531    1.000
    N2444    N        0.41570    0.06432    0.17514    1.000
    N2445    N        0.41278    0.10624    0.23360    1.000
    N2446    N        0.42012    0.13328    0.14904    1.000
    N2447    N        0.41310    0.16733    0.20904    1.000
    Si2448   Si       0.45625    0.23804    0.15879    1.000
    Si2449   Si       0.42886    0.20837    0.22347    1.000
    N2450    N        0.42207    0.23047    0.13138    1.000
    N2451    N        0.43822    0.08933    0.31694    1.000
    Si2452   Si       0.44540    0.01355    0.25828    1.000
    Si2453   Si       0.42969    0.01648    0.36327    1.000
    N2454    N        0.44874    0.05610    0.25180    1.000
    N2455    N        0.40454    0.03116    0.33211    1.000
    Si2456   Si       0.45046    0.13356    0.31877    1.000
    N2457    N        0.44575    0.13308    0.36319    1.000
    N2458    N        0.45913    0.21559    0.44023    1.000
    Si2459   Si       0.43329    0.20901    0.29150    1.000
    N2460    N        0.42904    0.17226    0.31977    1.000
    N2461    N        0.44578    0.18364    0.25932    1.000
    Si2462   Si       0.41006    0.17644    0.35927    1.000
    N2463    N        0.44455    0.24285    0.25110    1.000
    Si2464   Si       0.42049    0.14732    0.24806    1.000
    N2465    N        0.42857    0.11127    0.48933    1.000
    N2466    N        0.42238    0.04117    0.39799    1.000
    N2467    N        0.43900    0.10256    0.42218    1.000
    Si2468   Si       0.41523    0.11920    0.39069    1.000
    Si2469   Si       0.45780    0.09565    0.46318    1.000
    Si2470   Si       0.45641    0.06557    0.41033    1.000
    N2471    N        0.42937    0.21051    0.37698    1.000
    Si2472   Si       0.42208    0.22530    0.41833    1.000
    Si2473   Si       0.45592    0.20951    0.48248    1.000
    N2474    N        0.41643    0.02599    0.56588    1.000
    Si2475   Si       0.42860    0.04689    0.60079    1.000
    Si2476   Si       0.45136    0.01673    0.54227    1.000
    N2477    N        0.45398    0.08285    0.60319    1.000
    N2478    N        0.41028    0.13043    0.55506    1.000
    Si2479   Si       0.43992    0.13447    0.52373    1.000
    N2480    N        0.43022    0.24187    0.56727    1.000
    Si2481   Si       0.41091    0.14895    0.59445    1.000
    N2482    N        0.45553    0.17392    0.50719    1.000
    N2483    N        0.42794    0.23815    0.49898    1.000
    Si2484   Si       0.43550    0.24308    0.73876    1.000
    N2485    N        0.44944    0.01721    0.62552    1.000
    N2486    N        0.41507    0.06686    0.73632    1.000
    Si2487   Si       0.44515    0.01492    0.66927    1.000
    Si2488   Si       0.42873    0.10190    0.71318    1.000
    N2489    N        0.42533    0.09692    0.67034    1.000
    Si2490   Si       0.45689    0.10804    0.63966    1.000
    N2491    N        0.44311    0.14544    0.62232    1.000
    N2492    N        0.40679    0.21027    0.73851    1.000
    N2493    N        0.40544    0.13630    0.72661    1.000
    N2494    N        0.43966    0.00696    0.50234    1.000
    Si2495   Si       0.42251    0.06371    0.77967    1.000
    N2496    N        0.41530    0.03318    0.86773    1.000
    N2497    N        0.40062    0.09360    0.80103    1.000
    N2498    N        0.40151    0.02726    0.79597    1.000
    Si2499   Si       0.45570    0.04597    0.86222    1.000
    N2500    N        0.45024    0.24330    0.78323    1.000
    N2501    N        0.41979    0.14290    0.85586    1.000
    N2502    N        0.42337    0.22158    0.84583    1.000
    Si2503   Si       0.41724    0.16968    0.75411    1.000
    Si2504   Si       0.40737    0.18460    0.86407    1.000
    N2505    N        0.41296    0.02128    0.93527    1.000
    Si2506   Si       0.42715    0.10845    0.94164    1.000
    Si2507   Si       0.44461    0.11757    0.87995    1.000
    N2508    N        0.44473    0.07411    0.96167    1.000
    Si2509   Si       0.44014    0.03086    0.96858    1.000
    N2510    N        0.41804    0.08802    0.90417    1.000
    N2511    N        0.39961    0.12917    0.96975    1.000
    N2512    N        0.45306    0.18716    0.96516    1.000
    Si2513   Si       0.44900    0.18242    0.92156    1.000
    N2514    N        0.40895    0.19456    0.90571    1.000
    Si2515   Si       0.41570    0.16801    0.98348    1.000
    N2516    N        0.44722    0.13941    0.91955    1.000
    Si2517   Si       0.40493    0.25833    0.85919    1.000
    N2518    N        0.43146    0.29805    0.03000    1.000
    N2519    N        0.43772    0.35090    0.07741    1.000
    Si2520   Si       0.42324    0.26651    0.10192    1.000
    Si2521   Si       0.41432    0.25850    0.03055    1.000
    N2522    N        0.40790    0.30391    0.11812    1.000
    Si2523   Si       0.44668    0.39622    0.00998    1.000
    Si2524   Si       0.42577    0.39336    0.07970    1.000
    N2525    N        0.43931    0.42801    0.09958    1.000
    N2526    N        0.41511    0.40269    0.03993    1.000
    N2527    N        0.44663    0.50367    0.01634    1.000
    N2528    N        0.40966    0.30016    0.23723    1.000
    Si2529   Si       0.42024    0.34048    0.22371    1.000
    Si2530   Si       0.41699    0.30569    0.15989    1.000
    N2531    N        0.45151    0.28043    0.16587    1.000
    N2532    N        0.42729    0.34351    0.17914    1.000
    Si2533   Si       0.40732    0.42533    0.12841    1.000
    N2534    N        0.40203    0.43611    0.23557    1.000
    Si2535   Si       0.43550    0.51087    0.21912    1.000
    N2536    N        0.44372    0.49702    0.12353    1.000
    N2537    N        0.44224    0.47751    0.19132    1.000
    Si2538   Si       0.42777    0.43604    0.19946    1.000
    N2539    N        0.40819    0.41320    0.16886    1.000
    Si2540   Si       0.42663    0.27915    0.26914    1.000
    N2541    N        0.43680    0.30359    0.35663    1.000
    Si2542   Si       0.44097    0.34748    0.34333    1.000
    N2543    N        0.40149    0.34562    0.32445    1.000
    N2544    N        0.45059    0.35860    0.24840    1.000
    N2545    N        0.40586    0.43689    0.40028    1.000
    N2546    N        0.43590    0.41444    0.33389    1.000
    Si2547   Si       0.42085    0.42693    0.29447    1.000
    Si2548   Si       0.43649    0.49113    0.32646    1.000
    N2549    N        0.41102    0.46945    0.29456    1.000
    N2550    N        0.40189    0.49044    0.35393    1.000
    N2551    N        0.43179    0.36898    0.37762    1.000
    Si2552   Si       0.45097    0.28537    0.39208    1.000
    Si2553   Si       0.43907    0.35036    0.41495    1.000
    N2554    N        0.41667    0.26803    0.41186    1.000
    N2555    N        0.45539    0.38208    0.44141    1.000
    N2556    N        0.41755    0.34228    0.49045    1.000
    Si2557   Si       0.41248    0.40647    0.36881    1.000
    Si2558   Si       0.42403    0.47570    0.39129    1.000
    N2559    N        0.44686    0.45099    0.45535    1.000
    Si2560   Si       0.42793    0.41206    0.45681    1.000
    Si2561   Si       0.41874    0.47774    0.47330    1.000
    N2562    N        0.45805    0.29772    0.28815    1.000
    Si2563   Si       0.39862    0.30282    0.33415    1.000
    N2564    N        0.43567    0.31561    0.59381    1.000
    Si2565   Si       0.42109    0.35125    0.57929    1.000
    Si2566   Si       0.44830    0.36615    0.50742    1.000
    N2567    N        0.45021    0.36849    0.55070    1.000
    Si2568   Si       0.42799    0.26647    0.53293    1.000
    N2569    N        0.40712    0.37703    0.60927    1.000
    Si2570   Si       0.43691    0.43659    0.53177    1.000
    N2571    N        0.41920    0.47811    0.51810    1.000
    Si2572   Si       0.43631    0.48990    0.60412    1.000
    N2573    N        0.43330    0.40663    0.50015    1.000
    N2574    N        0.40486    0.43265    0.56001    1.000
    Si2575   Si       0.42350    0.29458    0.62995    1.000
    Si2576   Si       0.42374    0.36658    0.64891    1.000
    Si2577   Si       0.42011    0.32051    0.73073    1.000
    N2578    N        0.40385    0.32793    0.65155    1.000
    N2579    N        0.41885    0.40468    0.66925    1.000
    Si2580   Si       0.44113    0.44230    0.67294    1.000
    N2581    N        0.44493    0.45600    0.63249    1.000
    N2582    N        0.43978    0.46481    0.70997    1.000
    Si2583   Si       0.42305    0.50556    0.72362    1.000
    Si2584   Si       0.42800    0.28175    0.79261    1.000
    N2585    N        0.41967    0.35587    0.75567    1.000
    Si2586   Si       0.45591    0.43511    0.95317    1.000
    N2587    N        0.45745    0.31164    0.79571    1.000
    N2588    N        0.41518    0.27991    0.74845    1.000
    N2589    N        0.41463    0.44586    0.83723    1.000
    Si2590   Si       0.41410    0.41932    0.80292    1.000
    N2591    N        0.44996    0.39478    0.80221    1.000
    N2592    N        0.40709    0.43722    0.76188    1.000
    Si2593   Si       0.44772    0.44212    0.74700    1.000
    N2594    N        0.45372    0.40224    0.87234    1.000
    N2595    N        0.43251    0.27430    0.88818    1.000
    N2596    N        0.41890    0.29985    0.95533    1.000
    Si2597   Si       0.41460    0.30572    0.91144    1.000
    Si2598   Si       0.43958    0.31396    0.98829    1.000
    N2599    N        0.43060    0.34514    0.90958    1.000
    N2600    N        0.44598    0.35604    0.99244    1.000
    N2601    N        0.43194    0.43006    0.98842    1.000
    Si2602   Si       0.43427    0.44125    0.87993    1.000
    Si2603   Si       0.44359    0.38543    0.90988    1.000
    N2604    N        0.40655    0.48611    0.88600    1.000
    N2605    N        0.42083    0.42686    0.92062    1.000
    Si2606   Si       0.45918    0.37216    0.76571    1.000
    Si2607   Si       0.45869    0.50523    0.79422    1.000
    Si2608   Si       0.44832    0.50785    0.87465    1.000
    N2609    N        0.42913    0.55201    0.06411    1.000
    Si2610   Si       0.41517    0.51775    0.04126    1.000
    N2611    N        0.41408    0.60665    0.10174    1.000
    Si2612   Si       0.42815    0.63638    0.07484    1.000
    N2613    N        0.42182    0.72453    0.05750    1.000
    N2614    N        0.42867    0.67230    0.10513    1.000
    Si2615   Si       0.41466    0.67231    0.00190    1.000
    N2616    N        0.45546    0.68838    0.00759    1.000
    Si2617   Si       0.40047    0.69166    0.07551    1.000
    N2618    N        0.40669    0.58423    0.17022    1.000
    Si2619   Si       0.41321    0.61703    0.14216    1.000
    Si2620   Si       0.42833    0.57813    0.20677    1.000
    N2621    N        0.45540    0.54415    0.20086    1.000
    N2622    N        0.45382    0.63157    0.14926    1.000
    N2623    N        0.40867    0.70814    0.19103    1.000
    N2624    N        0.44978    0.68893    0.24238    1.000
    Si2625   Si       0.45042    0.70864    0.20199    1.000
    N2626    N        0.40005    0.65972    0.04309    1.000
    Si2627   Si       0.43672    0.57087    0.31542    1.000
    N2628    N        0.44919    0.52974    0.31459    1.000
    N2629    N        0.45339    0.59137    0.34742    1.000
    N2630    N        0.42132    0.63178    0.27190    1.000
    Si2631   Si       0.43575    0.67171    0.35224    1.000
    N2632    N        0.44136    0.70737    0.32918    1.000
    Si2633   Si       0.41195    0.67150    0.25395    1.000
    N2634    N        0.40406    0.64033    0.35145    1.000
    Si2635   Si       0.40693    0.72347    0.30867    1.000
    N2636    N        0.44023    0.74403    0.48679    1.000
    N2637    N        0.45792    0.57196    0.43339    1.000
    Si2638   Si       0.42197    0.60564    0.37582    1.000
    N2639    N        0.42113    0.61226    0.48788    1.000
    N2640    N        0.41982    0.62384    0.41660    1.000
    Si2641   Si       0.42277    0.59503    0.44603    1.000
    N2642    N        0.43399    0.51952    0.47625    1.000
    N2643    N        0.42689    0.51249    0.41300    1.000
    Si2644   Si       0.45591    0.52983    0.44044    1.000
    N2645    N        0.43754    0.68466    0.39573    1.000
    Si2646   Si       0.40389    0.65421    0.49080    1.000
    Si2647   Si       0.40728    0.66395    0.41915    1.000
    N2648    N        0.44562    0.55426    0.53473    1.000
    Si2649   Si       0.43763    0.59760    0.52691    1.000
    Si2650   Si       0.42115    0.52374    0.51734    1.000
    N2651    N        0.40452    0.60053    0.55597    1.000
    Si2652   Si       0.43250    0.71317    0.51509    1.000
    N2653    N        0.44328    0.73015    0.55154    1.000
    N2654    N        0.44458    0.67283    0.50398    1.000
    N2655    N        0.43166    0.63729    0.61458    1.000
    Si2656   Si       0.41645    0.67907    0.61926    1.000
    N2657    N        0.44170    0.53786    0.69849    1.000
    N2658    N        0.42133    0.51896    0.63462    1.000
    Si2659   Si       0.45029    0.54428    0.65803    1.000
    Si2660   Si       0.41650    0.62547    0.71001    1.000
    N2661    N        0.44780    0.62772    0.68215    1.000
    N2662    N        0.42160    0.59687    0.74412    1.000
    N2663    N        0.44883    0.70925    0.70021    1.000
    N2664    N        0.40938    0.66007    0.73692    1.000
    N2665    N        0.44864    0.70488    0.63157    1.000
    N2666    N        0.40457    0.74953    0.66225    1.000
    Si2667   Si       0.44651    0.73388    0.66340    1.000
    Si2668   Si       0.41220    0.70253    0.72674    1.000
    Si2669   Si       0.46225    0.62166    0.64040    1.000
    Si2670   Si       0.41803    0.55538    0.81837    1.000
    N2671    N        0.44307    0.52310    0.75914    1.000
    Si2672   Si       0.44902    0.62386    0.81752    1.000
    N2673    N        0.43224    0.51449    0.83015    1.000
    N2674    N        0.45135    0.58078    0.80411    1.000
    N2675    N        0.40258    0.57276    0.85650    1.000
    Si2676   Si       0.44640    0.71207    0.91281    1.000
    N2677    N        0.40955    0.63939    0.81047    1.000
    Si2678   Si       0.44104    0.73794    0.77448    1.000
    Si2679   Si       0.42338    0.74347    0.85369    1.000
    N2680    N        0.40691    0.71179    0.77133    1.000
    N2681    N        0.44227    0.75161    0.81482    1.000
    Si2682   Si       0.43909    0.58793    0.87807    1.000
    N2683    N        0.44554    0.60292    0.92006    1.000
    N2684    N        0.44699    0.54936    0.96330    1.000
    Si2685   Si       0.40380    0.53948    0.97047    1.000
    N2686    N        0.45435    0.54535    0.89367    1.000
    N2687    N        0.45981    0.62232    0.85776    1.000
    Si2688   Si       0.44816    0.63979    0.94445    1.000
    N2689    N        0.41616    0.63969    0.97376    1.000
    N2690    N        0.45783    0.73229    0.87734    1.000
    N2691    N        0.45596    0.66967    0.91376    1.000
    Si2692   Si       0.46068    0.59784    0.76545    1.000
    N2693    N        0.44430    0.77383    0.10355    1.000
    Si2694   Si       0.43206    0.86327    0.01081    1.000
    N2695    N        0.42797    0.79293    0.03492    1.000
    Si2696   Si       0.42067    0.76528    0.06915    1.000
    N2697    N        0.40708    0.83602    0.10778    1.000
    N2698    N        0.40525    0.88920    0.15694    1.000
    N2699    N        0.42870    0.90110    0.09066    1.000
    N2700    N        0.43927    0.94118    0.02598    1.000
    N2701    N        0.43630    0.99735    0.07752    1.000
    Si2702   Si       0.41253    0.91988    0.05494    1.000
    Si2703   Si       0.41510    0.99097    0.11575    1.000
    Si2704   Si       0.43610    0.80891    0.12851    1.000
    Si2705   Si       0.44232    0.78495    0.19969    1.000
    N2706    N        0.41747    0.80154    0.16706    1.000
    Si2707   Si       0.43263    0.86403    0.23688    1.000
    N2708    N        0.40994    0.76881    0.22256    1.000
    N2709    N        0.42205    0.94347    0.18429    1.000
    Si2710   Si       0.43224    0.98559    0.18773    1.000
    N2711    N        0.44621    0.99276    0.14623    1.000
    Si2712   Si       0.44136    0.90653    0.17431    1.000
    N2713    N        0.45873    0.99682    0.22040    1.000
    N2714    N        0.43450    0.77466    0.35205    1.000
    Si2715   Si       0.44408    0.81663    0.35807    1.000
    N2716    N        0.41178    0.82924    0.24989    1.000
    Si2717   Si       0.40504    0.78503    0.26155    1.000
    N2718    N        0.45297    0.88006    0.27236    1.000
    N2719    N        0.41064    0.90932    0.49600    1.000
    N2720    N        0.44982    0.94601    0.31965    1.000
    Si2721   Si       0.44555    0.92124    0.28440    1.000
    Si2722   Si       0.43017    0.93939    0.35876    1.000
    N2723    N        0.40236    0.92081    0.28191    1.000
    N2724    N        0.45147    0.91365    0.38549    1.000
    N2725    N        0.41018    0.84263    0.37059    1.000
    N2726    N        0.43848    0.79994    0.45677    1.000
    N2727    N        0.42978    0.86622    0.43485    1.000
    Si2728   Si       0.43815    0.78010    0.41729    1.000
    Si2729   Si       0.45457    0.84253    0.46137    1.000
    N2730    N        0.41256    0.93706    0.43586    1.000
    Si2731   Si       0.42797    0.97720    0.42477    1.000
    N2732    N        0.42424    0.97581    0.38210    1.000
    Si2733   Si       0.44028    0.90551    0.42546    1.000
    N2734    N        0.42212    0.75735    0.28917    1.000
    Si2735   Si       0.42728    0.78543    0.49478    1.000
    N2736    N        0.41793    0.83495    0.56245    1.000
    Si2737   Si       0.41540    0.84411    0.60480    1.000
    Si2738   Si       0.45248    0.83736    0.53812    1.000
    N2739    N        0.44421    0.87306    0.61859    1.000
    N2740    N        0.45415    0.85872    0.50107    1.000
    Si2741   Si       0.44317    0.91200    0.63801    1.000
    Si2742   Si       0.45257    0.89517    0.74230    1.000
    N2743    N        0.41357    0.94055    0.55840    1.000
    Si2744   Si       0.45476    0.94329    0.56274    1.000
    N2745    N        0.45708    0.93910    0.60742    1.000
    Si2746   Si       0.45386    0.90320    0.49654    1.000
    N2747    N        0.40153    0.92102    0.64964    1.000
    N2748    N        0.41679    0.87244    0.73165    1.000
    N2749    N        0.42745    0.80873    0.62776    1.000
    N2750    N        0.40879    0.99023    0.74181    1.000
    N2751    N        0.45448    0.93749    0.72786    1.000
    N2752    N        0.43969    0.97282    0.67067    1.000
    N2753    N        0.41634    0.84965    0.86138    1.000
    Si2754   Si       0.41361    0.85598    0.77318    1.000
    N2755    N        0.44808    0.83111    0.77892    1.000
    N2756    N        0.40386    0.78059    0.86388    1.000
    Si2757   Si       0.43376    0.80996    0.87107    1.000
    N2758    N        0.44234    0.89240    0.78589    1.000
    N2759    N        0.42924    0.95957    0.79441    1.000
    Si2760   Si       0.43346    0.92344    0.81676    1.000
    Si2761   Si       0.44425    0.96896    0.75603    1.000
    Si2762   Si       0.42580    0.86375    0.90159    1.000
    N2763    N        0.44273    0.82492    0.91309    1.000
    N2764    N        0.41054    0.83156    0.98802    1.000
    N2765    N        0.41270    0.76000    0.97780    1.000
    Si2766   Si       0.45488    0.75693    0.97396    1.000
    Si2767   Si       0.42369    0.93127    0.98748    1.000
    N2768    N        0.44336    0.89270    0.97853    1.000
    N2769    N        0.40836    0.95774    0.89086    1.000
    Si2770   Si       0.40507    0.97980    0.92923    1.000
    Si2771   Si       0.44679    0.93516    0.88613    1.000
    N2772    N        0.45052    0.89816    0.90742    1.000
    N2773    N        0.43168    0.95656    0.95339    1.000
    N2774    N        0.40158    0.91569    0.84318    1.000
    N2775    N        0.43104    0.76963    0.74709    1.000
    N2776    N        0.47977    0.11005    0.05588    1.000
    N2777    N        0.48672    0.05605    0.01204    1.000
    N2778    N        0.49511    0.04899    0.07670    1.000
    Si2779   Si       0.50537    0.07828    0.04500    1.000
    Si2780   Si       0.49902    0.01591    0.00165    1.000
    N2781    N        0.49076    0.18078    0.02955    1.000
    Si2782   Si       0.47085    0.14143    0.02713    1.000
    Si2783   Si       0.47249    0.20709    0.99975    1.000
    N2784    N        0.47118    0.16815    0.11399    1.000
    N2785    N        0.46786    0.09209    0.19513    1.000
    N2786    N        0.46840    0.09663    0.12611    1.000
    Si2787   Si       0.50851    0.08855    0.14118    1.000
    Si2788   Si       0.50379    0.11197    0.20974    1.000
    N2789    N        0.50373    0.04496    0.14912    1.000
    N2790    N        0.49219    0.23670    0.13246    1.000
    Si2791   Si       0.50406    0.19560    0.12494    1.000
    Si2792   Si       0.49876    0.18916    0.19612    1.000
    N2793    N        0.49257    0.15277    0.21699    1.000
    Si2794   Si       0.48508    0.23952    0.23314    1.000
    N2795    N        0.46451    0.21762    0.19728    1.000
    Si2796   Si       0.49674    0.04635    0.34423    1.000
    N2797    N        0.50041    0.06721    0.30651    1.000
    Si2798   Si       0.46601    0.08231    0.28317    1.000
    N2799    N        0.46873    0.01256    0.34407    1.000
    N2800    N        0.51384    0.09272    0.24631    1.000
    N2801    N        0.49713    0.13406    0.33001    1.000
    N2802    N        0.50867    0.24598    0.27330    1.000
    Si2803   Si       0.48217    0.15905    0.25815    1.000
    Si2804   Si       0.46724    0.22098    0.35901    1.000
    N2805    N        0.51771    0.17464    0.27790    1.000
    N2806    N        0.47957    0.25413    0.38547    1.000
    Si2807   Si       0.48731    0.11719    0.36904    1.000
    N2808    N        0.49775    0.11223    0.46723    1.000
    N2809    N        0.48276    0.07317    0.37492    1.000
    Si2810   Si       0.47096    0.01781    0.47114    1.000
    N2811    N        0.46702    0.05486    0.45139    1.000
    N2812    N        0.50862    0.01945    0.49211    1.000
    N2813    N        0.52101    0.13222    0.39501    1.000
    Si2814   Si       0.49227    0.22432    0.41368    1.000
    N2815    N        0.49837    0.19525    0.37754    1.000
    N2816    N        0.46137    0.12629    0.27622    1.000
    N2817    N        0.46098    0.23293    0.31788    1.000
    N2818    N        0.47871    0.04972    0.54517    1.000
    N2819    N        0.47670    0.11779    0.54057    1.000
    Si2820   Si       0.48190    0.08586    0.56835    1.000
    Si2821   Si       0.50893    0.11528    0.51132    1.000
    Si2822   Si       0.51811    0.04012    0.52818    1.000
    Si2823   Si       0.49498    0.18354    0.52475    1.000
    N2824    N        0.49010    0.19583    0.56551    1.000
    Si2825   Si       0.46701    0.22652    0.58580    1.000
    N2826    N        0.49692    0.21820    0.49751    1.000
    N2827    N        0.47490    0.03507    0.69591    1.000
    Si2828   Si       0.49298    0.07599    0.69463    1.000
    N2829    N        0.49318    0.10543    0.66224    1.000
    N2830    N        0.47298    0.09854    0.72505    1.000
    Si2831   Si       0.50690    0.14509    0.67208    1.000
    Si2832   Si       0.46459    0.17543    0.63934    1.000
    N2833    N        0.47250    0.16982    0.68094    1.000
    Si2834   Si       0.47806    0.19663    0.71605    1.000
    N2835    N        0.46299    0.21707    0.62853    1.000
    Si2836   Si       0.47378    0.24308    0.66282    1.000
    N2837    N        0.50651    0.16078    0.62923    1.000
    N2838    N        0.45989    0.23434    0.70468    1.000
    N2839    N        0.52091    0.09021    0.58841    1.000
    Si2840   Si       0.48537    0.09375    0.76717    1.000
    Si2841   Si       0.49047    0.11421    0.83563    1.000
    Si2842   Si       0.48048    0.02073    0.79385    1.000
    N2843    N        0.47570    0.12352    0.79731    1.000
    N2844    N        0.47004    0.01333    0.83648    1.000
    N2845    N        0.46373    0.05877    0.78258    1.000
    N2846    N        0.46448    0.08622    0.85560    1.000
    N2847    N        0.48216    0.19209    0.82093    1.000
    Si2848   Si       0.48448    0.16486    0.78633    1.000
    Si2849   Si       0.49712    0.18350    0.86295    1.000
    N2850    N        0.48411    0.14233    0.86671    1.000
    Si2851   Si       0.45987    0.22920    0.82268    1.000
    N2852    N        0.46057    0.17685    0.75221    1.000
    Si2853   Si       0.46865    0.24837    0.88895    1.000
    Si2854   Si       0.50374    0.02908    0.93157    1.000
    Si2855   Si       0.48511    0.08444    0.97768    1.000
    N2856    N        0.48146    0.03084    0.89561    1.000
    N2857    N        0.47811    0.00876    0.96301    1.000
    N2858    N        0.49172    0.12340    0.99241    1.000
    N2859    N        0.51278    0.07083    0.94517    1.000
    N2860    N        0.50313    0.23553    0.98358    1.000
    N2861    N        0.47348    0.20533    0.89122    1.000
    N2862    N        0.48663    0.25472    0.84874    1.000
    N2863    N        0.49573    0.32629    0.04586    1.000
    Si2864   Si       0.50040    0.27635    0.11255    1.000
    Si2865   Si       0.48918    0.34599    0.00642    1.000
    N2866    N        0.46237    0.28368    0.09171    1.000
    Si2867   Si       0.47421    0.39443    0.24289    1.000
    N2868    N        0.48627    0.38817    0.02354    1.000
    Si2869   Si       0.47987    0.44369    0.10259    1.000
    N2870    N        0.49530    0.48099    0.08776    1.000
    N2871    N        0.50769    0.41473    0.08626    1.000
    N2872    N        0.46761    0.41442    0.20479    1.000
    Si2873   Si       0.48621    0.30018    0.17934    1.000
    N2874    N        0.49612    0.27672    0.21527    1.000
    N2875    N        0.50714    0.33352    0.20017    1.000
    N2876    N        0.50683    0.30683    0.14173    1.000
    Si2877   Si       0.46747    0.48229    0.15758    1.000
    N2878    N        0.51417    0.38391    0.14984    1.000
    Si2879   Si       0.49993    0.41718    0.17568    1.000
    N2880    N        0.48329    0.44559    0.14696    1.000
    Si2881   Si       0.51642    0.40917    0.04576    1.000
    Si2882   Si       0.45786    0.31393    0.06258    1.000
    Si2883   Si       0.47111    0.33755    0.28036    1.000
    N2884    N        0.47435    0.36064    0.31656    1.000
    Si2885   Si       0.48616    0.26722    0.30296    1.000
    N2886    N        0.51393    0.32989    0.27208    1.000
    N2887    N        0.51212    0.29121    0.32763    1.000
    N2888    N        0.46371    0.47249    0.37323    1.000
    Si2889   Si       0.49185    0.45177    0.45598    1.000
    Si2890   Si       0.47707    0.46623    0.27249    1.000
    N2891    N        0.47664    0.47374    0.31423    1.000
    N2892    N        0.50869    0.42134    0.34204    1.000
    Si2893   Si       0.47360    0.40555    0.31753    1.000
    Si2894   Si       0.49838    0.46263    0.35019    1.000
    N2895    N        0.46099    0.42255    0.27697    1.000
    N2896    N        0.45880    0.50142    0.25435    1.000
    N2897    N        0.51256    0.41286    0.46229    1.000
    N2898    N        0.46811    0.31693    0.41577    1.000
    N2899    N        0.50491    0.28500    0.47120    1.000
    Si2900   Si       0.50516    0.30763    0.43405    1.000
    Si2901   Si       0.49276    0.37586    0.46070    1.000
    N2902    N        0.51548    0.45881    0.42002    1.000
    N2903    N        0.50234    0.47094    0.49396    1.000
    Si2904   Si       0.52042    0.50229    0.40710    1.000
    N2905    N        0.50106    0.33270    0.59662    1.000
    Si2906   Si       0.47231    0.30232    0.57541    1.000
    Si2907   Si       0.49232    0.30657    0.50756    1.000
    N2908    N        0.48953    0.26431    0.59013    1.000
    N2909    N        0.46135    0.29543    0.53341    1.000
    Si2910   Si       0.48264    0.43498    0.63142    1.000
    Si2911   Si       0.48446    0.39341    0.56386    1.000
    N2912    N        0.48467    0.40008    0.60700    1.000
    N2913    N        0.47747    0.43276    0.54600    1.000
    Si2914   Si       0.50719    0.49364    0.59883    1.000
    Si2915   Si       0.51130    0.45670    0.53257    1.000
    Si2916   Si       0.49864    0.36386    0.62713    1.000
    Si2917   Si       0.47757    0.31582    0.67550    1.000
    N2918    N        0.46476    0.35273    0.65303    1.000
    N2919    N        0.48193    0.42810    0.67406    1.000
    Si2920   Si       0.50148    0.41345    0.71077    1.000
    N2921    N        0.51549    0.46422    0.62926    1.000
    N2922    N        0.46801    0.40460    0.73690    1.000
    N2923    N        0.48434    0.34757    0.49327    1.000
    N2924    N        0.45780    0.28297    0.65472    1.000
    N2925    N        0.45666    0.31773    0.70993    1.000
    Si2926   Si       0.49722    0.32731    0.80757    1.000
    N2927    N        0.49970    0.35752    0.77541    1.000
    N2928    N        0.49373    0.34810    0.84603    1.000
    Si2929   Si       0.51707    0.39624    0.93250    1.000
    Si2930   Si       0.50830    0.47596    0.75818    1.000
    Si2931   Si       0.47769    0.39050    0.83679    1.000
    N2932    N        0.46915    0.46697    0.77561    1.000
    N2933    N        0.50602    0.42337    0.83300    1.000
    Si2934   Si       0.50605    0.44866    0.86897    1.000
    N2935    N        0.49787    0.26200    0.91889    1.000
    N2936    N        0.48151    0.30640    0.98134    1.000
    Si2937   Si       0.50121    0.27387    0.96221    1.000
    N2938    N        0.49260    0.45885    0.95894    1.000
    N2939    N        0.47432    0.39629    0.94155    1.000
    N2940    N        0.46842    0.46932    0.88213    1.000
    N2941    N        0.49043    0.55357    0.09358    1.000
    N2942    N        0.48354    0.56401    0.02464    1.000
    Si2943   Si       0.46703    0.57317    0.06243    1.000
    N2944    N        0.46559    0.61834    0.06559    1.000
    Si2945   Si       0.48142    0.51607    0.10878    1.000
    Si2946   Si       0.46132    0.67053    0.13261    1.000
    Si2947   Si       0.50384    0.63919    0.07406    1.000
    N2948    N        0.48673    0.72756    0.07040    1.000
    N2949    N        0.49481    0.66904    0.10582    1.000
    N2950    N        0.51334    0.66092    0.03816    1.000
    Si2951   Si       0.49338    0.66543    0.99848    1.000
    Si2952   Si       0.51418    0.70698    0.09947    1.000
    Si2953   Si       0.46015    0.72208    0.03705    1.000
    N2954    N        0.47738    0.75383    0.01189    1.000
    N2955    N        0.49607    0.51374    0.15219    1.000
    Si2956   Si       0.49415    0.54482    0.18145    1.000
    Si2957   Si       0.48089    0.61794    0.18002    1.000
    N2958    N        0.49734    0.58306    0.15821    1.000
    N2959    N        0.51571    0.63810    0.19380    1.000
    Si2960   Si       0.51335    0.68122    0.18623    1.000
    N2961    N        0.51112    0.70240    0.22334    1.000
    N2962    N        0.50877    0.74445    0.12779    1.000
    Si2963   Si       0.50971    0.74575    0.21627    1.000
    N2964    N        0.46796    0.74938    0.19789    1.000
    N2965    N        0.47451    0.68911    0.16984    1.000
    N2966    N        0.45625    0.61127    0.21541    1.000
    Si2967   Si       0.49027    0.61397    0.34298    1.000
    Si2968   Si       0.47041    0.53572    0.27767    1.000
    N2969    N        0.51249    0.53573    0.27102    1.000
    Si2970   Si       0.45975    0.61819    0.25747    1.000
    N2971    N        0.45670    0.57786    0.27676    1.000
    N2972    N        0.49274    0.64278    0.26763    1.000
    N2973    N        0.50730    0.70589    0.29389    1.000
    Si2974   Si       0.50212    0.69032    0.33347    1.000
    N2975    N        0.47490    0.65507    0.34392    1.000
    Si2976   Si       0.49098    0.68688    0.25888    1.000
    N2977    N        0.49096    0.72100    0.36219    1.000
    Si2978   Si       0.46265    0.74574    0.33595    1.000
    N2979    N        0.50519    0.61306    0.38454    1.000
    Si2980   Si       0.49635    0.58014    0.41359    1.000
    N2981    N        0.50958    0.54705    0.39139    1.000
    N2982    N        0.49567    0.51275    0.44524    1.000
    Si2983   Si       0.51573    0.51167    0.48465    1.000
    Si2984   Si       0.47317    0.70833    0.40059    1.000
    Si2985   Si       0.51789    0.67934    0.45233    1.000
    N2986    N        0.50272    0.71459    0.47189    1.000
    Si2987   Si       0.47728    0.74724    0.46313    1.000
    N2988    N        0.50396    0.67843    0.41042    1.000
    N2989    N        0.50978    0.64513    0.47664    1.000
    N2990    N        0.46214    0.74357    0.42292    1.000
    N2991    N        0.49864    0.57716    0.57569    1.000
    Si2992   Si       0.48075    0.54271    0.55636    1.000
    N2993    N        0.47445    0.62206    0.53318    1.000
    N2994    N        0.50830    0.53252    0.52255    1.000
    Si2995   Si       0.51278    0.60823    0.54829    1.000
    Si2996   Si       0.48597    0.66024    0.51041    1.000
    N2997    N        0.51078    0.70649    0.59316    1.000
    N2998    N        0.51323    0.68787    0.52817    1.000
    N2999    N        0.50930    0.75475    0.53546    1.000
    Si3000   Si       0.51693    0.74870    0.58350    1.000
    Si3001   Si       0.50489    0.56486    0.61858    1.000
    N3002    N        0.46541    0.57959    0.63609    1.000
    N3003    N        0.49293    0.52828    0.66274    1.000
    Si3004   Si       0.47149    0.54136    0.73106    1.000
    N3005    N        0.50498    0.51283    0.73258    1.000
    N3006    N        0.49123    0.58039    0.73977    1.000
    Si3007   Si       0.49418    0.70607    0.70389    1.000
    Si3008   Si       0.49002    0.69008    0.62923    1.000
    N3009    N        0.49544    0.64817    0.63017    1.000
    N3010    N        0.51097    0.74577    0.71941    1.000
    N3011    N        0.51352    0.70213    0.66485    1.000
    N3012    N        0.51050    0.67419    0.72896    1.000
    N3013    N        0.46979    0.50848    0.58155    1.000
    N3014    N        0.49612    0.52112    0.80969    1.000
    N3015    N        0.51405    0.63461    0.90114    1.000
    N3016    N        0.47172    0.63890    0.78113    1.000
    Si3017   Si       0.49540    0.67488    0.76967    1.000
    N3018    N        0.47945    0.71492    0.77231    1.000
    N3019    N        0.49953    0.68508    0.85550    1.000
    Si3020   Si       0.51105    0.74339    0.76297    1.000
    Si3021   Si       0.50090    0.72580    0.87005    1.000
    Si3022   Si       0.48193    0.65323    0.88148    1.000
    N3023    N        0.50822    0.57838    0.93657    1.000
    Si3024   Si       0.46663    0.56611    0.93035    1.000
    N3025    N        0.51205    0.52777    0.98064    1.000
    Si3026   Si       0.51510    0.62175    0.94200    1.000
    Si3027   Si       0.51091    0.72049    0.94808    1.000
    N3028    N        0.48294    0.63640    0.96794    1.000
    N3029    N        0.46829    0.72825    0.94662    1.000
    Si3030   Si       0.51966    0.55758    0.81348    1.000
    N3031    N        0.52150    0.68875    0.97444    1.000
    Si3032   Si       0.47059    0.53231    0.99579    1.000
    N3033    N        0.49197    0.86893    0.08554    1.000
    Si3034   Si       0.50266    0.83463    0.10636    1.000
    N3035    N        0.50328    0.79895    0.07752    1.000
    Si3036   Si       0.50152    0.87218    0.04104    1.000
    N3037    N        0.46881    0.84688    0.02378    1.000
    Si3038   Si       0.48510    0.76346    0.09472    1.000
    Si3039   Si       0.46750    0.80360    0.01658    1.000
    Si3040   Si       0.46933    0.90340    0.09793    1.000
    N3041    N        0.48430    0.93912    0.07990    1.000
    N3042    N        0.48662    0.98842    0.03347    1.000
    Si3043   Si       0.48007    0.94762    0.03643    1.000
    N3044    N        0.50604    0.99346    0.10629    1.000
    N3045    N        0.50471    0.91462    0.02289    1.000
    Si3046   Si       0.47889    0.00772    0.07437    1.000
    N3047    N        0.47634    0.81191    0.20756    1.000
    N3048    N        0.47242    0.82938    0.13785    1.000
    Si3049   Si       0.48118    0.84593    0.17907    1.000
    Si3050   Si       0.50440    0.80841    0.23948    1.000
    N3051    N        0.46063    0.87677    0.20381    1.000
    Si3052   Si       0.48998    0.97263    0.24206    1.000
    Si3053   Si       0.51087    0.90379    0.15504    1.000
    N3054    N        0.46976    0.90384    0.14192    1.000
    N3055    N        0.50672    0.92165    0.19108    1.000
    Si3056   Si       0.48943    0.90459    0.22665    1.000
    Si3057   Si       0.48767    0.00494    0.14358    1.000
    N3058    N        0.51560    0.98938    0.17290    1.000
    Si3059   Si       0.48150    0.86092    0.29506    1.000
    Si3060   Si       0.50560    0.81166    0.31553    1.000
    N3061    N        0.49525    0.76827    0.31610    1.000
    N3062    N        0.46925    0.83257    0.32567    1.000
    N3063    N        0.50853    0.83179    0.27735    1.000
    N3064    N        0.51250    0.76814    0.25432    1.000
    N3065    N        0.50576    0.88879    0.31978    1.000
    N3066    N        0.48064    0.99471    0.27722    1.000
    Si3067   Si       0.47955    0.97929    0.31707    1.000
    N3068    N        0.47029    0.93474    0.24951    1.000
    N3069    N        0.51084    0.77786    0.47084    1.000
    Si3070   Si       0.50022    0.83041    0.41134    1.000
    N3071    N        0.49788    0.84605    0.45199    1.000
    N3072    N        0.46219    0.81252    0.39859    1.000
    N3073    N        0.51110    0.86813    0.39428    1.000
    N3074    N        0.47395    0.91229    0.45715    1.000
    Si3075   Si       0.49228    0.95111    0.45174    1.000
    N3076    N        0.46542    0.98462    0.44128    1.000
    Si3077   Si       0.51087    0.89396    0.43019    1.000
    N3078    N        0.48486    0.85528    0.56282    1.000
    Si3079   Si       0.48406    0.86186    0.60521    1.000
    N3080    N        0.48343    0.77438    0.59245    1.000
    Si3081   Si       0.50709    0.79195    0.51118    1.000
    Si3082   Si       0.46728    0.76481    0.55372    1.000
    N3083    N        0.46197    0.79605    0.52450    1.000
    N3084    N        0.51763    0.88954    0.61624    1.000
    N3085    N        0.47287    0.92732    0.52693    1.000
    Si3086   Si       0.47009    0.98219    0.61060    1.000
    N3087    N        0.46784    0.98451    0.56690    1.000
    Si3088   Si       0.51673    0.93653    0.52569    1.000
    Si3089   Si       0.46771    0.79386    0.62664    1.000
    Si3090   Si       0.51118    0.84608    0.71886    1.000
    N3091    N        0.49754    0.82618    0.62884    1.000
    N3092    N        0.47411    0.76693    0.66241    1.000
    Si3093   Si       0.50195    0.77933    0.69254    1.000
    N3094    N        0.48319    0.81150    0.71583    1.000
    N3095    N        0.47561    0.91444    0.66664    1.000
    N3096    N        0.51142    0.98531    0.62389    1.000
    Si3097   Si       0.46854    0.94933    0.69082    1.000
    Si3098   Si       0.51525    0.90150    0.65963    1.000
    N3099    N        0.50258    0.97563    0.69566    1.000
    Si3100   Si       0.49800    0.01015    0.72252    1.000
    N3101    N        0.48919    0.87283    0.74587    1.000
    N3102    N        0.49029    0.77808    0.78032    1.000
    Si3103   Si       0.47592    0.86236    0.78679    1.000
    N3104    N        0.47220    0.80525    0.84949    1.000
    Si3105   Si       0.47856    0.77265    0.82107    1.000
    Si3106   Si       0.46213    0.80068    0.75376    1.000
    N3107    N        0.50367    0.87760    0.81452    1.000
    Si3108   Si       0.51203    0.79818    0.86798    1.000
    N3109    N        0.46660    0.93013    0.84683    1.000
    Si3110   Si       0.50796    0.91899    0.83088    1.000
    N3111    N        0.47629    0.99692    0.75763    1.000
    N3112    N        0.51184    0.79651    0.91134    1.000
    Si3113   Si       0.48034    0.81779    0.93410    1.000
    N3114    N        0.49894    0.85954    0.93764    1.000
    N3115    N        0.47059    0.79996    0.97289    1.000
    N3116    N        0.47403    0.96511    0.90171    1.000
    N3117    N        0.49709    0.92872    0.95630    1.000
    Si3118   Si       0.47246    0.89375    0.94476    1.000
    Si3119   Si       0.48667    0.99422    0.87188    1.000
    Si3120   Si       0.47561    0.96492    0.94615    1.000
    N3121    N        0.51407    0.75793    0.84569    1.000
    N3122    N        0.54667    0.08069    0.03744    1.000
    Si3123   Si       0.56405    0.04337    0.03367    1.000
    Si3124   Si       0.53381    0.03860    0.10431    1.000
    N3125    N        0.55924    0.02386    0.07218    1.000
    N3126    N        0.54191    0.02245    0.00213    1.000
    N3127    N        0.54264    0.08236    0.11502    1.000
    Si3128   Si       0.57525    0.11415    0.04770    1.000
    N3129    N        0.53533    0.18821    0.09462    1.000
    N3130    N        0.54405    0.14387    0.03908    1.000
    N3131    N        0.54825    0.21762    0.03425    1.000
    Si3132   Si       0.52822    0.18388    0.05170    1.000
    Si3133   Si       0.55820    0.25526    0.05142    1.000
    Si3134   Si       0.57418    0.18093    0.10936    1.000
    N3135    N        0.55969    0.04572    0.20326    1.000
    N3136    N        0.56418    0.02563    0.13477    1.000
    Si3137   Si       0.53786    0.02762    0.17113    1.000
    N3138    N        0.52680    0.11263    0.17197    1.000
    N3139    N        0.52252    0.21327    0.22153    1.000
    N3140    N        0.57511    0.14399    0.13141    1.000
    Si3141   Si       0.56604    0.20703    0.21047    1.000
    Si3142   Si       0.55119    0.15097    0.16710    1.000
    Si3143   Si       0.53112    0.14215    0.99740    1.000
    N3144    N        0.52257    0.18278    0.16132    1.000
    N3145    N        0.55695    0.11668    0.29734    1.000
    N3146    N        0.56202    0.04896    0.28062    1.000
    Si3147   Si       0.53419    0.08082    0.28067    1.000
    N3148    N        0.52962    0.02456    0.36584    1.000
    N3149    N        0.55394    0.17226    0.33856    1.000
    Si3150   Si       0.53407    0.21318    0.26467    1.000
    Si3151   Si       0.53315    0.14934    0.30912    1.000
    N3152    N        0.57431    0.21151    0.25301    1.000
    N3153    N        0.55494    0.24540    0.37022    1.000
    Si3154   Si       0.55418    0.03624    0.40244    1.000
    N3155    N        0.54777    0.07209    0.42704    1.000
    N3156    N        0.56451    0.12754    0.45249    1.000
    Si3157   Si       0.52903    0.11204    0.43270    1.000
    N3158    N        0.52767    0.23311    0.43529    1.000
    Si3159   Si       0.56292    0.22834    0.40938    1.000
    Si3160   Si       0.53444    0.17111    0.37570    1.000
    N3161    N        0.56677    0.18457    0.40285    1.000
    Si3162   Si       0.56079    0.14984    0.49104    1.000
    Si3163   Si       0.52167    0.24524    0.47633    1.000
    N3164    N        0.53665    0.08064    0.51949    1.000
    Si3165   Si       0.55498    0.06215    0.58597    1.000
    N3166    N        0.53803    0.02791    0.56634    1.000
    Si3167   Si       0.53124    0.12358    0.61111    1.000
    N3168    N        0.51782    0.24769    0.65945    1.000
    N3169    N        0.57677    0.04717    0.62226    1.000
    N3170    N        0.54556    0.13800    0.69000    1.000
    N3171    N        0.54313    0.21949    0.59883    1.000
    N3172    N        0.54896    0.15358    0.58230    1.000
    N3173    N        0.52458    0.15540    0.51375    1.000
    Si3174   Si       0.51922    0.18252    0.59435    1.000
    Si3175   Si       0.52430    0.25516    0.61445    1.000
    N3176    N        0.55839    0.25014    0.49672    1.000
    N3177    N        0.53662    0.06552    0.69305    1.000
    Si3178   Si       0.56162    0.03214    0.70452    1.000
    N3179    N        0.53672    0.02183    0.73878    1.000
    Si3180   Si       0.55938    0.09894    0.67845    1.000
    N3181    N        0.56294    0.10829    0.63534    1.000
    Si3182   Si       0.54430    0.22107    0.68359    1.000
    N3183    N        0.52151    0.20239    0.71381    1.000
    Si3184   Si       0.57877    0.08542    0.52366    1.000
    Si3185   Si       0.54649    0.04907    0.77261    1.000
    N3186    N        0.53398    0.11672    0.83314    1.000
    Si3187   Si       0.54351    0.12507    0.79283    1.000
    N3188    N        0.52775    0.08812    0.77256    1.000
    N3189    N        0.52451    0.02620    0.80292    1.000
    N3190    N        0.54707    0.22738    0.77279    1.000
    N3191    N        0.55913    0.24120    0.83572    1.000
    N3192    N        0.52637    0.16057    0.77461    1.000
    N3193    N        0.53953    0.18144    0.86730    1.000
    Si3194   Si       0.56804    0.21667    0.86814    1.000
    Si3195   Si       0.54385    0.19260    0.75061    1.000
    Si3196   Si       0.55118    0.13616    0.86818    1.000
    Si3197   Si       0.54699    0.09549    0.93753    1.000
    N3198    N        0.56008    0.12203    0.97053    1.000
    N3199    N        0.53848    0.12710    0.90971    1.000
    N3200    N        0.53689    0.17769    0.97466    1.000
    Si3201   Si       0.55253    0.15564    0.94016    1.000
    N3202    N        0.57525    0.23596    0.96898    1.000
    N3203    N        0.56521    0.24166    0.90372    1.000
    Si3204   Si       0.54297    0.21774    0.99112    1.000
    Si3205   Si       0.57999    0.23708    0.79722    1.000
    N3206    N        0.54895    0.27929    0.01849    1.000
    Si3207   Si       0.53778    0.31726    0.03519    1.000
    N3208    N        0.56075    0.36691    0.10331    1.000
    N3209    N        0.52987    0.27088    0.08268    1.000
    Si3210   Si       0.52048    0.30738    0.23280    1.000
    Si3211   Si       0.57404    0.44048    0.17449    1.000
    N3212    N        0.55502    0.39089    0.03498    1.000
    Si3213   Si       0.52712    0.47909    0.05865    1.000
    N3214    N        0.56651    0.48245    0.08035    1.000
    N3215    N        0.52198    0.44830    0.02846    1.000
    Si3216   Si       0.53571    0.39989    0.11562    1.000
    Si3217   Si       0.52420    0.34423    0.15982    1.000
    N3218    N        0.56340    0.30312    0.23048    1.000
    N3219    N        0.56629    0.34367    0.16992    1.000
    N3220    N        0.56351    0.42785    0.13388    1.000
    Si3221   Si       0.53629    0.43258    0.24089    1.000
    N3222    N        0.53627    0.43021    0.19751    1.000
    Si3223   Si       0.54400    0.36385    0.26485    1.000
    N3224    N        0.56017    0.35486    0.30470    1.000
    Si3225   Si       0.54025    0.28516    0.36134    1.000
    N3226    N        0.52868    0.35088    0.35958    1.000
    N3227    N        0.56121    0.48324    0.30591    1.000
    Si3228   Si       0.54083    0.39545    0.35487    1.000
    Si3229   Si       0.54169    0.49992    0.27231    1.000
    N3230    N        0.53226    0.48725    0.36629    1.000
    Si3231   Si       0.56683    0.50313    0.34323    1.000
    N3232    N        0.57490    0.43165    0.26295    1.000
    N3233    N        0.51765    0.46588    0.25697    1.000
    Si3234   Si       0.56403    0.33964    0.46456    1.000
    Si3235   Si       0.54347    0.34769    0.40156    1.000
    N3236    N        0.52251    0.34650    0.44394    1.000
    N3237    N        0.53207    0.30236    0.40022    1.000
    N3238    N        0.56660    0.37493    0.48839    1.000
    N3239    N        0.54701    0.39357    0.39736    1.000
    N3240    N        0.51685    0.39699    0.25399    1.000
    Si3241   Si       0.54177    0.42503    0.42442    1.000
    N3242    N        0.57376    0.43152    0.45338    1.000
    Si3243   Si       0.55012    0.41445    0.48452    1.000
    Si3244   Si       0.52133    0.33381    0.31927    1.000
    Si3245   Si       0.53128    0.33429    0.56573    1.000
    Si3246   Si       0.56531    0.28486    0.52212    1.000
    N3247    N        0.52715    0.30559    0.53344    1.000
    N3248    N        0.52139    0.37458    0.55253    1.000
    N3249    N        0.57382    0.33308    0.57531    1.000
    N3250    N        0.55689    0.28394    0.62292    1.000
    Si3251   Si       0.55563    0.39962    0.55258    1.000
    N3252    N        0.54406    0.42892    0.52309    1.000
    N3253    N        0.55905    0.42196    0.58811    1.000
    Si3254   Si       0.56652    0.46414    0.57554    1.000
    N3255    N        0.52814    0.47919    0.56398    1.000
    N3256    N        0.54976    0.48804    0.68375    1.000
    Si3257   Si       0.54412    0.35477    0.68380    1.000
    Si3258   Si       0.54591    0.28255    0.66469    1.000
    N3259    N        0.53416    0.37608    0.64749    1.000
    N3260    N        0.52278    0.31613    0.68023    1.000
    N3261    N        0.52907    0.38048    0.71628    1.000
    Si3262   Si       0.55547    0.46981    0.64489    1.000
    N3263    N        0.57448    0.43219    0.65459    1.000
    Si3264   Si       0.55953    0.46463    0.71850    1.000
    N3265    N        0.52163    0.44726    0.72912    1.000
    Si3266   Si       0.56200    0.40260    0.62823    1.000
    N3267    N        0.57730    0.48782    0.61064    1.000
    N3268    N        0.57299    0.25635    0.68695    1.000
    N3269    N        0.52858    0.29851    0.80625    1.000
    Si3270   Si       0.53684    0.37099    0.75802    1.000
    N3271    N        0.56598    0.33824    0.75769    1.000
    Si3272   Si       0.52587    0.27165    0.83973    1.000
    Si3273   Si       0.56898    0.30839    0.78986    1.000
    N3274    N        0.55547    0.37089    0.86308    1.000
    N3275    N        0.56114    0.40301    0.77633    1.000
    Si3276   Si       0.54394    0.43020    0.80975    1.000
    N3277    N        0.53144    0.48276    0.86003    1.000
    N3278    N        0.53703    0.46892    0.79085    1.000
    Si3279   Si       0.53161    0.49813    0.82031    1.000
    N3280    N        0.57275    0.43517    0.84297    1.000
    Si3281   Si       0.52544    0.34186    0.87736    1.000
    N3282    N        0.53206    0.29838    0.87430    1.000
    N3283    N        0.54435    0.29174    0.95049    1.000
    Si3284   Si       0.53881    0.27514    0.90939    1.000
    Si3285   Si       0.54081    0.33525    0.95381    1.000
    N3286    N        0.52073    0.35179    0.91939    1.000
    Si3287   Si       0.57250    0.27889    0.98028    1.000
    N3288    N        0.55394    0.47089    0.97419    1.000
    Si3289   Si       0.52522    0.44109    0.98670    1.000
    N3290    N        0.52505    0.42453    0.89936    1.000
    Si3291   Si       0.55937    0.49621    0.89004    1.000
    N3292    N        0.53662    0.40283    0.97102    1.000
    Si3293   Si       0.56311    0.41210    0.88001    1.000
    Si3294   Si       0.52000    0.49191    0.95589    1.000
    N3295    N        0.53407    0.34304    0.99685    1.000
    Si3296   Si       0.56477    0.37514    0.99325    1.000
    Si3297   Si       0.56112    0.59476    0.05856    1.000
    N3298    N        0.54786    0.58691    0.01807    1.000
    N3299    N        0.53085    0.60669    0.08665    1.000
    N3300    N        0.53605    0.51658    0.03867    1.000
    Si3301   Si       0.52401    0.55090    0.01754    1.000
    Si3302   Si       0.51898    0.57616    0.11893    1.000
    Si3303   Si       0.54851    0.69076    0.04155    1.000
    N3304    N        0.55321    0.69890    0.08500    1.000
    N3305    N        0.54664    0.73148    0.02833    1.000
    N3306    N        0.57805    0.67334    0.01564    1.000
    N3307    N        0.53368    0.54637    0.20222    1.000
    N3308    N        0.57387    0.59745    0.17843    1.000
    N3309    N        0.55512    0.55397    0.13173    1.000
    Si3310   Si       0.55139    0.61925    0.20929    1.000
    Si3311   Si       0.56717    0.55442    0.17357    1.000
    N3312    N        0.54388    0.59922    0.24603    1.000
    Si3313   Si       0.54202    0.55641    0.24405    1.000
    Si3314   Si       0.54376    0.73883    0.15544    1.000
    N3315    N        0.54602    0.69516    0.16248    1.000
    Si3316   Si       0.52826    0.62432    0.27736    1.000
    N3317    N        0.55662    0.54519    0.34383    1.000
    Si3318   Si       0.56443    0.58317    0.32411    1.000
    N3319    N        0.52494    0.60241    0.31735    1.000
    N3320    N        0.57278    0.52774    0.25526    1.000
    Si3321   Si       0.52247    0.74792    0.29052    1.000
    N3322    N        0.56617    0.75150    0.30159    1.000
    N3323    N        0.53629    0.66835    0.34797    1.000
    N3324    N        0.55910    0.65329    0.28542    1.000
    Si3325   Si       0.57126    0.65525    0.32676    1.000
    N3326    N        0.55987    0.51784    0.41807    1.000
    Si3327   Si       0.55358    0.54895    0.38779    1.000
    Si3328   Si       0.53495    0.61047    0.47896    1.000
    N3329    N        0.57432    0.62569    0.46931    1.000
    N3330    N        0.55975    0.51844    0.49050    1.000
    N3331    N        0.52505    0.58400    0.44576    1.000
    N3332    N        0.56460    0.63522    0.40021    1.000
    Si3333   Si       0.52536    0.65114    0.38596    1.000
    N3334    N        0.56655    0.73893    0.49463    1.000
    N3335    N        0.56013    0.69024    0.45052    1.000
    N3336    N        0.57534    0.75709    0.42843    1.000
    Si3337   Si       0.57731    0.65474    0.43823    1.000
    N3338    N        0.53759    0.59172    0.51748    1.000
    Si3339   Si       0.54782    0.54821    0.52479    1.000
    N3340    N        0.52872    0.53052    0.60526    1.000
    Si3341   Si       0.57236    0.52937    0.59733    1.000
    N3342    N        0.57535    0.54218    0.55653    1.000
    Si3343   Si       0.53199    0.63426    0.61443    1.000
    N3344    N        0.53181    0.63926    0.57320    1.000
    Si3345   Si       0.53411    0.68215    0.56495    1.000
    N3346    N        0.56878    0.71069    0.56366    1.000
    Si3347   Si       0.52552    0.72421    0.50863    1.000
    N3348    N        0.53452    0.59299    0.63332    1.000
    N3349    N        0.55060    0.55203    0.69494    1.000
    Si3350   Si       0.56448    0.57505    0.65992    1.000
    Si3351   Si       0.52198    0.51852    0.69224    1.000
    Si3352   Si       0.55244    0.66273    0.72955    1.000
    N3353    N        0.56274    0.66574    0.62518    1.000
    N3354    N        0.57660    0.72858    0.65637    1.000
    N3355    N        0.56787    0.66412    0.68885    1.000
    Si3356   Si       0.55624    0.69238    0.65730    1.000
    N3357    N        0.58082    0.69253    0.74441    1.000
    N3358    N        0.55698    0.62259    0.74445    1.000
    N3359    N        0.55731    0.53326    0.81637    1.000
    N3360    N        0.52959    0.59342    0.79133    1.000
    N3361    N        0.52533    0.56971    0.85677    1.000
    Si3362   Si       0.53305    0.58436    0.74838    1.000
    Si3363   Si       0.57162    0.55851    0.85545    1.000
    Si3364   Si       0.55081    0.63032    0.80032    1.000
    N3365    N        0.57478    0.56279    0.75362    1.000
    N3366    N        0.52219    0.71896    0.90707    1.000
    N3367    N        0.54562    0.63740    0.84582    1.000
    Si3368   Si       0.55358    0.74536    0.82736    1.000
    Si3369   Si       0.53733    0.67740    0.83749    1.000
    N3370    N        0.56761    0.70779    0.84472    1.000
    N3371    N        0.53007    0.66832    0.79628    1.000
    N3372    N        0.54954    0.74273    0.78216    1.000
    Si3373   Si       0.53512    0.60773    0.87520    1.000
    Si3374   Si       0.53992    0.54916    0.94619    1.000
    Si3375   Si       0.57321    0.60089    0.98603    1.000
    N3376    N        0.53950    0.51430    0.92332    1.000
    N3377    N        0.57619    0.56711    0.95918    1.000
    N3378    N        0.57451    0.59331    0.88635    1.000
    N3379    N        0.55192    0.63240    0.96284    1.000
    Si3380   Si       0.57817    0.74145    0.96525    1.000
    Si3381   Si       0.56247    0.67425    0.97539    1.000
    N3382    N        0.53550    0.75378    0.96494    1.000
    Si3383   Si       0.54409    0.81563    0.06061    1.000
    N3384    N        0.54339    0.85803    0.04187    1.000
    N3385    N        0.54676    0.83384    0.10462    1.000
    N3386    N        0.53585    0.79734    0.01904    1.000
    Si3387   Si       0.57144    0.87427    0.01527    1.000
    N3388    N        0.55101    0.95565    0.06388    1.000
    Si3389   Si       0.52132    0.95440    0.09651    1.000
    Si3390   Si       0.56676    0.79992    0.20239    1.000
    N3391    N        0.53972    0.82559    0.22434    1.000
    Si3392   Si       0.56016    0.85079    0.14375    1.000
    N3393    N        0.52230    0.86229    0.16179    1.000
    N3394    N        0.54412    0.76104    0.19207    1.000
    Si3395   Si       0.53369    0.95649    0.19284    1.000
    N3396    N        0.53122    0.96259    0.23717    1.000
    N3397    N        0.53410    0.92656    0.12633    1.000
    N3398    N        0.57291    0.94383    0.17720    1.000
    Si3399   Si       0.52056    0.75719    0.00529    1.000
    N3400    N        0.53455    0.82564    0.34323    1.000
    Si3401   Si       0.54314    0.85556    0.25723    1.000
    Si3402   Si       0.52473    0.86645    0.35407    1.000
    N3403    N        0.55852    0.89494    0.35144    1.000
    Si3404   Si       0.54729    0.98675    0.35008    1.000
    Si3405   Si       0.53639    0.92269    0.32482    1.000
    Si3406   Si       0.55260    0.92820    0.25261    1.000
    N3407    N        0.56524    0.93435    0.29481    1.000
    N3408    N        0.52635    0.89338    0.24738    1.000
    N3409    N        0.54818    0.00443    0.43308    1.000
    Si3410   Si       0.56148    0.80593    0.37551    1.000
    N3411    N        0.56589    0.82072    0.45948    1.000
    N3412    N        0.53045    0.80046    0.40617    1.000
    Si3413   Si       0.53617    0.84813    0.47491    1.000
    Si3414   Si       0.54640    0.78556    0.44493    1.000
    Si3415   Si       0.54288    0.99857    0.47855    1.000
    N3416    N        0.56853    0.96340    0.37997    1.000
    Si3417   Si       0.55133    0.96377    0.41944    1.000
    Si3418   Si       0.55834    0.92644    0.47457    1.000
    N3419    N        0.54228    0.88909    0.46105    1.000
    N3420    N        0.52507    0.95533    0.48194    1.000
    N3421    N        0.51712    0.93680    0.41877    1.000
    N3422    N        0.51709    0.96100    0.33058    1.000
    N3423    N        0.56159    0.85459    0.56436    1.000
    Si3424   Si       0.55826    0.87850    0.60240    1.000
    N3425    N        0.53186    0.82861    0.51371    1.000
    Si3426   Si       0.52375    0.85982    0.54456    1.000
    Si3427   Si       0.57175    0.82205    0.53618    1.000
    N3428    N        0.55123    0.76462    0.60378    1.000
    N3429    N        0.53814    0.96337    0.55072    1.000
    N3430    N        0.53522    0.89944    0.52885    1.000
    Si3431   Si       0.53838    0.99019    0.58787    1.000
    N3432    N        0.57495    0.98249    0.60878    1.000
    N3433    N        0.57417    0.00500    0.50550    1.000
    N3434    N        0.57796    0.91171    0.58554    1.000
    N3435    N        0.54100    0.79149    0.67539    1.000
    Si3436   Si       0.53328    0.83373    0.65428    1.000
    Si3437   Si       0.56664    0.76987    0.64321    1.000
    N3438    N        0.54440    0.82251    0.73571    1.000
    N3439    N        0.56697    0.85186    0.63468    1.000
    Si3440   Si       0.56961    0.79788    0.71231    1.000
    N3441    N        0.56177    0.00329    0.67264    1.000
    N3442    N        0.54403    0.93349    0.66140    1.000
    Si3443   Si       0.53016    0.97489    0.66096    1.000
    N3444    N        0.52230    0.86467    0.68284    1.000
    Si3445   Si       0.57765    0.97167    0.53368    1.000
    N3446    N        0.54038    0.82775    0.85704    1.000
    Si3447   Si       0.53891    0.86350    0.83272    1.000
    Si3448   Si       0.56968    0.83474    0.76798    1.000
    N3449    N        0.57293    0.84874    0.80846    1.000
    N3450    N        0.54923    0.88634    0.97914    1.000
    Si3451   Si       0.53890    0.99278    0.82408    1.000
    N3452    N        0.53897    0.90358    0.85636    1.000
    N3453    N        0.53123    0.99499    0.86594    1.000
    Si3454   Si       0.52645    0.92201    0.98633    1.000
    Si3455   Si       0.54207    0.86102    0.94476    1.000
    N3456    N        0.55257    0.82107    0.95810    1.000
    Si3457   Si       0.54556    0.78609    0.93464    1.000
    N3458    N        0.56786    0.87435    0.91206    1.000
    Si3459   Si       0.57162    0.80912    0.99523    1.000
    Si3460   Si       0.55796    0.98594    0.89902    1.000
    N3461    N        0.53833    0.00189    0.93644    1.000
    N3462    N        0.55575    0.95657    0.99185    1.000
    N3463    N        0.57187    0.94597    0.90707    1.000
    Si3464   Si       0.56107    0.99548    0.97258    1.000
    Si3465   Si       0.56724    0.90924    0.88700    1.000
    N3466    N        0.52481    0.95301    0.81250    1.000
    N3467    N        0.60801    0.04324    0.02907    1.000
    N3468    N        0.59771    0.10275    0.08146    1.000
    N3469    N        0.62263    0.01431    0.09935    1.000
    Si3470   Si       0.58164    0.10056    0.12002    1.000
    N3471    N        0.60651    0.13412    0.02542    1.000
    N3472    N        0.59971    0.18396    0.07342    1.000
    Si3473   Si       0.61403    0.22279    0.09097    1.000
    Si3474   Si       0.62647    0.15801    0.05341    1.000
    N3475    N        0.61856    0.07836    0.13173    1.000
    N3476    N        0.62501    0.08368    0.19953    1.000
    N3477    N        0.62114    0.02323    0.17255    1.000
    Si3478   Si       0.60231    0.04623    0.20381    1.000
    Si3479   Si       0.60621    0.03524    0.13364    1.000
    N3480    N        0.61670    0.02899    0.24198    1.000
    N3481    N        0.58521    0.24186    0.19393    1.000
    Si3482   Si       0.61449    0.22932    0.16363    1.000
    Si3483   Si       0.62386    0.15991    0.19295    1.000
    N3484    N        0.59395    0.21257    0.12989    1.000
    N3485    N        0.63671    0.14276    0.23158    1.000
    N3486    N        0.58018    0.16689    0.19519    1.000
    N3487    N        0.64059    0.19834    0.18404    1.000
    Si3488   Si       0.59921    0.12075    0.29540    1.000
    N3489    N        0.61465    0.09404    0.26781    1.000
    Si3490   Si       0.60407    0.05182    0.27625    1.000
    N3491    N        0.62162    0.04834    0.31549    1.000
    Si3492   Si       0.60694    0.02168    0.34478    1.000
    N3493    N        0.62604    0.11416    0.32997    1.000
    N3494    N        0.61256    0.16316    0.29316    1.000
    Si3495   Si       0.59444    0.18430    0.32668    1.000
    Si3496   Si       0.60882    0.22620    0.27148    1.000
    N3497    N        0.59558    0.22608    0.31440    1.000
    N3498    N        0.62614    0.17657    0.35415    1.000
    N3499    N        0.62977    0.22107    0.49149    1.000
    N3500    N        0.59266    0.03478    0.38227    1.000
    N3501    N        0.61791    0.07968    0.42983    1.000
    N3502    N        0.59554    0.06554    0.48881    1.000
    Si3503   Si       0.62819    0.05198    0.39933    1.000
    Si3504   Si       0.58217    0.08412    0.45162    1.000
    Si3505   Si       0.61125    0.02520    0.49576    1.000
    N3506    N        0.62668    0.16398    0.42255    1.000
    Si3507   Si       0.58969    0.22688    0.47575    1.000
    N3508    N        0.59056    0.24913    0.43713    1.000
    N3509    N        0.61855    0.23614    0.38210    1.000
    N3510    N        0.57515    0.18608    0.47045    1.000
    Si3511   Si       0.58557    0.16339    0.43493    1.000
    N3512    N        0.59024    0.07476    0.56395    1.000
    Si3513   Si       0.63197    0.08107    0.57848    1.000
    N3514    N        0.63142    0.09863    0.62036    1.000
    N3515    N        0.58633    0.12882    0.51832    1.000
    N3516    N        0.63567    0.02321    0.53206    1.000
    N3517    N        0.61730    0.13494    0.56950    1.000
    N3518    N        0.60953    0.22693    0.60603    1.000
    N3519    N        0.59022    0.19557    0.54780    1.000
    Si3520   Si       0.58188    0.15434    0.55457    1.000
    Si3521   Si       0.57813    0.22666    0.57501    1.000
    Si3522   Si       0.63100    0.20715    0.53148    1.000
    Si3523   Si       0.59685    0.08195    0.63711    1.000
    Si3524   Si       0.62492    0.06461    0.71262    1.000
    N3525    N        0.60011    0.08157    0.68186    1.000
    N3526    N        0.60021    0.03064    0.72442    1.000
    N3527    N        0.62882    0.09532    0.74339    1.000
    Si3528   Si       0.58814    0.01014    0.63900    1.000
    N3529    N        0.62911    0.01071    0.64759    1.000
    Si3530   Si       0.61516    0.25083    0.69491    1.000
    N3531    N        0.62639    0.24501    0.73543    1.000
    Si3532   Si       0.60656    0.20236    0.64130    1.000
    Si3533   Si       0.58182    0.16151    0.69486    1.000
    N3534    N        0.58146    0.17877    0.73470    1.000
    N3535    N        0.62624    0.14837    0.69531    1.000
    Si3536   Si       0.63280    0.13123    0.52426    1.000
    N3537    N        0.57316    0.19239    0.66623    1.000
    Si3538   Si       0.60852    0.09334    0.78151    1.000
    Si3539   Si       0.60944    0.02547    0.80768    1.000
    N3540    N        0.58518    0.05689    0.78990    1.000
    Si3541   Si       0.63201    0.12182    0.84462    1.000
    N3542    N        0.58555    0.13047    0.78409    1.000
    N3543    N        0.63485    0.09007    0.81430    1.000
    N3544    N        0.59522    0.13499    0.86678    1.000
    N3545    N        0.60468    0.20158    0.79468    1.000
    Si3546   Si       0.60706    0.16762    0.76871    1.000
    N3547    N        0.60936    0.20232    0.86655    1.000
    Si3548   Si       0.59175    0.22163    0.93208    1.000
    Si3549   Si       0.61154    0.16760    0.89118    1.000
    N3550    N        0.62312    0.08598    0.97448    1.000
    Si3551   Si       0.62147    0.04633    0.98801    1.000
    N3552    N        0.59698    0.01985    0.96339    1.000
    Si3553   Si       0.60379    0.03879    0.92467    1.000
    Si3554   Si       0.60165    0.12541    0.98311    1.000
    Si3555   Si       0.63259    0.19715    0.82858    1.000
    N3556    N        0.57772    0.07230    0.91777    1.000
    N3557    N        0.58526    0.17751    0.92453    1.000
    N3558    N        0.63498    0.21849    0.93553    1.000
    N3559    N        0.63372    0.02728    0.84473    1.000
    Si3560   Si       0.60357    0.30010    0.08055    1.000
    N3561    N        0.61121    0.36784    0.01313    1.000
    Si3562   Si       0.62912    0.32719    0.01619    1.000
    Si3563   Si       0.63710    0.39731    0.17736    1.000
    Si3564   Si       0.58016    0.36807    0.06333    1.000
    N3565    N        0.60392    0.42149    0.19667    1.000
    N3566    N        0.61686    0.38705    0.07349    1.000
    N3567    N        0.62374    0.45582    0.10870    1.000
    Si3568   Si       0.58258    0.46534    0.11755    1.000
    N3569    N        0.60522    0.50176    0.01972    1.000
    N3570    N        0.60904    0.31437    0.12246    1.000
    N3571    N        0.57460    0.32451    0.05664    1.000
    Si3572   Si       0.58397    0.33614    0.20781    1.000
    Si3573   Si       0.59735    0.27576    0.22058    1.000
    N3574    N        0.61544    0.30826    0.19631    1.000
    Si3575   Si       0.58791    0.35201    0.13379    1.000
    N3576    N        0.62262    0.37871    0.14075    1.000
    N3577    N        0.58044    0.36859    0.23724    1.000
    Si3578   Si       0.60017    0.40709    0.23840    1.000
    N3579    N        0.58356    0.48224    0.15947    1.000
    N3580    N        0.59450    0.25784    0.07310    1.000
    Si3581   Si       0.59110    0.33351    0.32802    1.000
    N3582    N        0.60394    0.35736    0.36372    1.000
    N3583    N        0.61401    0.26798    0.26039    1.000
    N3584    N        0.62314    0.32875    0.29964    1.000
    N3585    N        0.57699    0.29534    0.34170    1.000
    N3586    N        0.62310    0.45468    0.30994    1.000
    Si3587   Si       0.61606    0.39839    0.35585    1.000
    Si3588   Si       0.58088    0.44361    0.30439    1.000
    N3589    N        0.57710    0.41267    0.33721    1.000
    N3590    N        0.63735    0.40955    0.25920    1.000
    N3591    N        0.58115    0.33785    0.42524    1.000
    Si3592   Si       0.61771    0.33993    0.39969    1.000
    Si3593   Si       0.62589    0.26476    0.41569    1.000
    N3594    N        0.60982    0.48367    0.47277    1.000
    Si3595   Si       0.61363    0.44087    0.46735    1.000
    N3596    N        0.63525    0.42358    0.38333    1.000
    Si3597   Si       0.59693    0.25545    0.34770    1.000
    Si3598   Si       0.60473    0.36666    0.58215    1.000
    Si3599   Si       0.60070    0.35966    0.51026    1.000
    Si3600   Si       0.58731    0.29542    0.59367    1.000
    N3601    N        0.63028    0.29265    0.59900    1.000
    N3602    N        0.57994    0.26681    0.55933    1.000
    N3603    N        0.58267    0.31776    0.49684    1.000
    N3604    N        0.59880    0.38696    0.54630    1.000
    Si3605   Si       0.59541    0.49655    0.51242    1.000
    N3606    N        0.59757    0.46701    0.54308    1.000
    Si3607   Si       0.61610    0.42855    0.54160    1.000
    N3608    N        0.63111    0.42099    0.50175    1.000
    N3609    N        0.59559    0.37660    0.62257    1.000
    N3610    N        0.63064    0.31545    0.73757    1.000
    Si3611   Si       0.60100    0.34703    0.73053    1.000
    Si3612   Si       0.61473    0.36434    0.65964    1.000
    N3613    N        0.58654    0.35093    0.69026    1.000
    N3614    N        0.62355    0.38127    0.74524    1.000
    Si3615   Si       0.60929    0.43540    0.68061    1.000
    N3616    N        0.63119    0.39858    0.67916    1.000
    N3617    N        0.59295    0.43680    0.72195    1.000
    N3618    N        0.57958    0.49791    0.74129    1.000
    N3619    N        0.63186    0.46908    0.66952    1.000
    Si3620   Si       0.59482    0.35705    0.85210    1.000
    N3621    N        0.59422    0.32595    0.82056    1.000
    N3622    N        0.59716    0.27549    0.78856    1.000
    Si3623   Si       0.62616    0.29694    0.81644    1.000
    Si3624   Si       0.63100    0.27809    0.75927    1.000
    N3625    N        0.61596    0.38740    0.82936    1.000
    N3626    N        0.61882    0.44468    0.78598    1.000
    Si3627   Si       0.61120    0.42909    0.82799    1.000
    Si3628   Si       0.59906    0.41519    0.75831    1.000
    Si3629   Si       0.61672    0.48132    0.76095    1.000
    Si3630   Si       0.60629    0.36880    0.92202    1.000
    N3631    N        0.61451    0.34308    0.88686    1.000
    N3632    N        0.61132    0.29625    0.99052    1.000
    N3633    N        0.57890    0.35635    0.95346    1.000
    N3634    N        0.59144    0.40634    0.91059    1.000
    Si3635   Si       0.59465    0.48561    0.97699    1.000
    Si3636   Si       0.61272    0.43782    0.92927    1.000
    N3637    N        0.61787    0.44935    0.97105    1.000
    N3638    N        0.59243    0.47081    0.90685    1.000
    Si3639   Si       0.59325    0.55779    0.10968    1.000
    N3640    N        0.59390    0.62376    0.05954    1.000
    Si3641   Si       0.62852    0.61283    0.08142    1.000
    N3642    N        0.61815    0.52283    0.11396    1.000
    N3643    N        0.58170    0.55613    0.06869    1.000
    Si3644   Si       0.57851    0.51505    0.05208    1.000
    N3645    N        0.61507    0.59235    0.11815    1.000
    N3646    N        0.61185    0.61439    0.99624    1.000
    Si3647   Si       0.61023    0.64685    0.02623    1.000
    N3648    N        0.60621    0.73143    0.06085    1.000
    Si3649   Si       0.58989    0.71778    0.09776    1.000
    N3650    N        0.60766    0.71196    0.18816    1.000
    Si3651   Si       0.60844    0.61065    0.15682    1.000
    N3652    N        0.60920    0.54446    0.17867    1.000
    Si3653   Si       0.62760    0.70761    0.22612    1.000
    N3654    N        0.62688    0.71166    0.12138    1.000
    Si3655   Si       0.58120    0.67683    0.17743    1.000
    Si3656   Si       0.61638    0.73727    0.15325    1.000
    N3657    N        0.57816    0.74477    0.13081    1.000
    N3658    N        0.60552    0.65316    0.14930    1.000
    N3659    N        0.57582    0.65489    0.21331    1.000
    Si3660   Si       0.58138    0.75524    0.03567    1.000
    Si3661   Si       0.61584    0.50978    0.15641    1.000
    Si3662   Si       0.62212    0.60698    0.30881    1.000
    Si3663   Si       0.60948    0.54091    0.26962    1.000
    N3664    N        0.59149    0.61867    0.33886    1.000
    N3665    N        0.59702    0.57366    0.29481    1.000
    N3666    N        0.62248    0.63814    0.27603    1.000
    N3667    N        0.59928    0.70116    0.25750    1.000
    N3668    N        0.60133    0.68645    0.32763    1.000
    Si3669   Si       0.59176    0.71754    0.29623    1.000
    Si3670   Si       0.58913    0.65819    0.25365    1.000
    N3671    N        0.62743    0.73931    0.30927    1.000
    Si3672   Si       0.63497    0.71131    0.34457    1.000
    Si3673   Si       0.59967    0.61282    0.38334    1.000
    Si3674   Si       0.62204    0.53546    0.38879    1.000
    N3675    N        0.59268    0.56950    0.39018    1.000
    N3676    N        0.62345    0.52580    0.43162    1.000
    Si3677   Si       0.58557    0.51636    0.45171    1.000
    N3678    N        0.62614    0.71992    0.38746    1.000
    N3679    N        0.61598    0.66405    0.42734    1.000
    Si3680   Si       0.58293    0.72578    0.45578    1.000
    N3681    N        0.62683    0.72734    0.45488    1.000
    N3682    N        0.60955    0.50693    0.35795    1.000
    Si3683   Si       0.60950    0.63010    0.49423    1.000
    N3684    N        0.61259    0.59897    0.52512    1.000
    N3685    N        0.60764    0.61577    0.59234    1.000
    N3686    N        0.62367    0.52676    0.51876    1.000
    Si3687   Si       0.61549    0.55975    0.54491    1.000
    Si3688   Si       0.61940    0.57902    0.60869    1.000
    Si3689   Si       0.62523    0.63166    0.55429    1.000
    Si3690   Si       0.58291    0.75137    0.57823    1.000
    Si3691   Si       0.60716    0.69585    0.54956    1.000
    N3692    N        0.62560    0.67670    0.58548    1.000
    N3693    N        0.60773    0.66079    0.52465    1.000
    N3694    N        0.62609    0.73015    0.53117    1.000
    Si3695   Si       0.60228    0.65327    0.61326    1.000
    N3696    N        0.62491    0.75313    0.59049    1.000
    Si3697   Si       0.63476    0.57420    0.68020    1.000
    N3698    N        0.58883    0.55408    0.63113    1.000
    N3699    N        0.59629    0.59716    0.67895    1.000
    N3700    N        0.62018    0.53364    0.69585    1.000
    Si3701   Si       0.58294    0.53640    0.72160    1.000
    Si3702   Si       0.60512    0.64108    0.68571    1.000
    N3703    N        0.62704    0.65036    0.64835    1.000
    Si3704   Si       0.60786    0.73378    0.68566    1.000
    N3705    N        0.62970    0.69716    0.69825    1.000
    Si3706   Si       0.62276    0.67949    0.73779    1.000
    N3707    N        0.62062    0.63756    0.72768    1.000
    N3708    N        0.60465    0.56971    0.82673    1.000
    Si3709   Si       0.59668    0.54883    0.78936    1.000
    N3710    N        0.62510    0.51522    0.78706    1.000
    Si3711   Si       0.59986    0.60744    0.75300    1.000
    Si3712   Si       0.62007    0.75323    0.90933    1.000
    N3713    N        0.59510    0.63180    0.79282    1.000
    N3714    N        0.62306    0.74378    0.76729    1.000
    Si3715   Si       0.60881    0.70106    0.85578    1.000
    N3716    N        0.62872    0.66415    0.84798    1.000
    Si3717   Si       0.63179    0.64817    0.80714    1.000
    Si3718   Si       0.58300    0.73565    0.75430    1.000
    N3719    N        0.63323    0.72751    0.83116    1.000
    N3720    N        0.58871    0.70042    0.95422    1.000
    N3721    N        0.58902    0.52632    0.88019    1.000
    Si3722   Si       0.61810    0.55653    0.95684    1.000
    Si3723   Si       0.61186    0.60665    0.89953    1.000
    N3724    N        0.61406    0.51456    0.94949    1.000
    N3725    N        0.63655    0.57732    0.92432    1.000
    Si3726   Si       0.61718    0.50819    0.90794    1.000
    N3727    N        0.62008    0.71223    0.89740    1.000
    Si3728   Si       0.62249    0.68645    0.93176    1.000
    N3729    N        0.62166    0.64698    0.91066    1.000
    N3730    N        0.63169    0.57953    0.76555    1.000
    Si3731   Si       0.62508    0.80076    0.07101    1.000
    N3732    N        0.58478    0.79414    0.05835    1.000
    N3733    N        0.59777    0.84143    0.00435    1.000
    N3734    N        0.63059    0.81175    0.11247    1.000
    N3735    N        0.59725    0.91067    0.01895    1.000
    N3736    N        0.60868    0.97220    0.04565    1.000
    Si3737   Si       0.58364    0.98534    0.08058    1.000
    N3738    N        0.59680    0.95797    0.11394    1.000
    Si3739   Si       0.57732    0.94770    0.02963    1.000
    N3740    N        0.57859    0.81732    0.16418    1.000
    Si3741   Si       0.62134    0.80879    0.15338    1.000
    N3742    N        0.60310    0.79833    0.22624    1.000
    Si3743   Si       0.62699    0.88015    0.15055    1.000
    Si3744   Si       0.57541    0.92797    0.13630    1.000
    N3745    N        0.62898    0.96985    0.21268    1.000
    N3746    N        0.59157    0.91477    0.23646    1.000
    N3747    N        0.58522    0.88657    0.13873    1.000
    Si3748   Si       0.60787    0.93446    0.19956    1.000
    Si3749   Si       0.61011    0.82369    0.26225    1.000
    Si3750   Si       0.60038    0.77371    0.31959    1.000
    N3751    N        0.59283    0.77656    0.36284    1.000
    N3752    N        0.62137    0.80705    0.30031    1.000
    Si3753   Si       0.59440    0.87343    0.36200    1.000
    N3754    N        0.62834    0.86307    0.33591    1.000
    N3755    N        0.58158    0.85655    0.27217    1.000
    Si3756   Si       0.61070    0.88911    0.26412    1.000
    Si3757   Si       0.60182    0.95982    0.30409    1.000
    N3758    N        0.61678    0.93321    0.33858    1.000
    N3759    N        0.58058    0.99416    0.32527    1.000
    Si3760   Si       0.60999    0.76031    0.40059    1.000
    Si3761   Si       0.60532    0.82429    0.47535    1.000
    Si3762   Si       0.61852    0.85491    0.41117    1.000
    N3763    N        0.58720    0.83847    0.38550    1.000
    N3764    N        0.61912    0.78445    0.48600    1.000
    N3765    N        0.62440    0.85571    0.45275    1.000
    Si3766   Si       0.60433    0.93630    0.38112    1.000
    Si3767   Si       0.62340    0.95684    0.44816    1.000
    N3768    N        0.58180    0.94573    0.44398    1.000
    N3769    N        0.61181    0.89580    0.39561    1.000
    N3770    N        0.62786    0.99423    0.46796    1.000
    N3771    N        0.63280    0.95859    0.40609    1.000
    N3772    N        0.60404    0.83937    0.51477    1.000
    N3773    N        0.58201    0.78283    0.54689    1.000
    N3774    N        0.61242    0.96481    0.56005    1.000
    Si3775   Si       0.59894    0.94656    0.59680    1.000
    N3776    N        0.62593    0.89610    0.53901    1.000
    N3777    N        0.58510    0.93350    0.51082    1.000
    Si3778   Si       0.63030    0.92966    0.51401    1.000
    Si3779   Si       0.57835    0.89909    0.54205    1.000
    Si3780   Si       0.62278    0.99724    0.74240    1.000
    Si3781   Si       0.61819    0.84281    0.72955    1.000
    N3782    N        0.60303    0.79363    0.63837    1.000
    N3783    N        0.59869    0.82926    0.69386    1.000
    Si3784   Si       0.60333    0.83604    0.65080    1.000
    N3785    N        0.58736    0.75768    0.71462    1.000
    N3786    N        0.61205    0.93224    0.63611    1.000
    Si3787   Si       0.58590    0.93729    0.66866    1.000
    N3788    N        0.60078    0.92321    0.70474    1.000
    N3789    N        0.63571    0.86149    0.63807    1.000
    Si3790   Si       0.59859    0.76026    0.51446    1.000
    Si3791   Si       0.62506    0.76838    0.83841    1.000
    Si3792   Si       0.60204    0.87804    0.79473    1.000
    N3793    N        0.58292    0.77768    0.83247    1.000
    N3794    N        0.60262    0.80928    0.75563    1.000
    N3795    N        0.59392    0.87274    0.75118    1.000
    N3796    N        0.60991    0.83406    0.86915    1.000
    Si3797   Si       0.57999    0.82045    0.84254    1.000
    N3798    N        0.59774    0.96355    0.75492    1.000
    N3799    N        0.59083    0.91766    0.79457    1.000
    Si3800   Si       0.60049    0.95841    0.79828    1.000
    Si3801   Si       0.60301    0.91878    0.74967    1.000
    N3802    N        0.58102    0.99362    0.81519    1.000
    Si3803   Si       0.60780    0.86464    0.89981    1.000
    N3804    N        0.59412    0.77014    0.99519    1.000
    N3805    N        0.58194    0.76390    0.92604    1.000
    Si3806   Si       0.61486    0.93651    0.91417    1.000
    N3807    N        0.62455    0.92403    0.95286    1.000
    N3808    N        0.61282    0.90441    0.88001    1.000
    Si3809   Si       0.63130    0.00520    0.88158    1.000
    N3810    N        0.64051    0.77558    0.87888    1.000
    N3811    N        0.58992    0.01221    0.89544    1.000
    N3812    N        0.65969    0.07264    0.06520    1.000
    N3813    N        0.67913    0.11841    0.01088    1.000
    Si3814   Si       0.64173    0.09710    0.09783    1.000
    Si3815   Si       0.63627    0.03451    0.06203    1.000
    Si3816   Si       0.69187    0.09273    0.04419    1.000
    Si3817   Si       0.67554    0.24864    0.12333    1.000
    N3818    N        0.65011    0.14015    0.08756    1.000
    Si3819   Si       0.67803    0.21603    0.05639    1.000
    N3820    N        0.65567    0.22454    0.09302    1.000
    N3821    N        0.65998    0.18331    0.03417    1.000
    Si3822   Si       0.66942    0.16173    0.00023    1.000
    N3823    N        0.68697    0.25388    0.03472    1.000
    N3824    N        0.68015    0.10267    0.12521    1.000
    Si3825   Si       0.64787    0.09327    0.16345    1.000
    N3826    N        0.68354    0.07136    0.17494    1.000
    Si3827   Si       0.64263    0.10167    0.23659    1.000
    Si3828   Si       0.69244    0.05195    0.21249    1.000
    N3829    N        0.67873    0.07776    0.24581    1.000
    N3830    N        0.67762    0.00923    0.22030    1.000
    N3831    N        0.69514    0.24202    0.21620    1.000
    N3832    N        0.64273    0.13686    0.16206    1.000
    Si3833   Si       0.66836    0.20883    0.21645    1.000
    N3834    N        0.69408    0.17449    0.23005    1.000
    Si3835   Si       0.66805    0.14419    0.12715    1.000
    N3836    N        0.64088    0.25890    0.14912    1.000
    Si3837   Si       0.64523    0.07752    0.33485    1.000
    N3838    N        0.68502    0.08654    0.31604    1.000
    N3839    N        0.69429    0.02469    0.29170    1.000
    Si3840   Si       0.64686    0.16734    0.26515    1.000
    N3841    N        0.67809    0.15988    0.29578    1.000
    Si3842   Si       0.65101    0.14946    0.33025    1.000
    N3843    N        0.68475    0.14209    0.35839    1.000
    N3844    N        0.64390    0.20855    0.25186    1.000
    N3845    N        0.65819    0.07189    0.37637    1.000
    N3846    N        0.67757    0.10694    0.43348    1.000
    N3847    N        0.65386    0.02124    0.41515    1.000
    N3848    N        0.66370    0.05102    0.48061    1.000
    Si3849   Si       0.67814    0.02266    0.45160    1.000
    N3850    N        0.64408    0.12299    0.48229    1.000
    Si3851   Si       0.64929    0.08463    0.45930    1.000
    Si3852   Si       0.69289    0.07500    0.40584    1.000
    Si3853   Si       0.66807    0.22222    0.47074    1.000
    Si3854   Si       0.65756    0.14623    0.44763    1.000
    N3855    N        0.65888    0.24650    0.43554    1.000
    Si3856   Si       0.63714    0.19631    0.39035    1.000
    N3857    N        0.68081    0.18181    0.45533    1.000
    N3858    N        0.68133    0.20555    0.38601    1.000
    Si3859   Si       0.69100    0.24212    0.40741    1.000
    Si3860   Si       0.67351    0.04822    0.52407    1.000
    N3861    N        0.65821    0.08972    0.54139    1.000
    N3862    N        0.65665    0.04778    0.58953    1.000
    Si3863   Si       0.66265    0.01603    0.61810    1.000
    Si3864   Si       0.64096    0.13922    0.60460    1.000
    N3865    N        0.68154    0.14139    0.59032    1.000
    N3866    N        0.65382    0.16974    0.52921    1.000
    N3867    N        0.65383    0.23834    0.55417    1.000
    Si3868   Si       0.64420    0.25088    0.59471    1.000
    Si3869   Si       0.68941    0.16712    0.55552    1.000
    N3870    N        0.69243    0.17260    0.68316    1.000
    N3871    N        0.66309    0.05087    0.70235    1.000
    Si3872   Si       0.65283    0.12756    0.72508    1.000
    Si3873   Si       0.65709    0.01273    0.68200    1.000
    N3874    N        0.69321    0.11436    0.71414    1.000
    N3875    N        0.69127    0.01603    0.65255    1.000
    Si3876   Si       0.69494    0.07564    0.69276    1.000
    Si3877   Si       0.66947    0.24695    0.66208    1.000
    N3878    N        0.67993    0.25382    0.62152    1.000
    Si3879   Si       0.64991    0.17672    0.67342    1.000
    N3880    N        0.63194    0.16881    0.63509    1.000
    N3881    N        0.63643    0.21783    0.67099    1.000
    Si3882   Si       0.65667    0.06465    0.84269    1.000
    N3883    N        0.69549    0.11118    0.78215    1.000
    Si3884   Si       0.66343    0.24948    0.92707    1.000
    N3885    N        0.64779    0.15594    0.75849    1.000
    N3886    N        0.66604    0.22582    0.82336    1.000
    Si3887   Si       0.67493    0.14912    0.79095    1.000
    N3888    N        0.64727    0.15633    0.82593    1.000
    N3889    N        0.65669    0.09760    0.87203    1.000
    N3890    N        0.66190    0.03297    0.98633    1.000
    Si3891   Si       0.66114    0.10722    0.97163    1.000
    Si3892   Si       0.67431    0.02860    0.94403    1.000
    N3893    N        0.68806    0.10397    0.93846    1.000
    N3894    N        0.64618    0.03203    0.91296    1.000
    Si3895   Si       0.67496    0.12261    0.90023    1.000
    N3896    N        0.68802    0.18237    0.96566    1.000
    Si3897   Si       0.65004    0.17908    0.94328    1.000
    N3898    N        0.64949    0.15679    0.90706    1.000
    N3899    N        0.68535    0.24449    0.88853    1.000
    N3900    N        0.63702    0.14720    0.96911    1.000
    N3901    N        0.67619    0.35383    0.10227    1.000
    Si3902   Si       0.67880    0.28921    0.05828    1.000
    N3903    N        0.68391    0.28512    0.10116    1.000
    N3904    N        0.67649    0.38086    0.03529    1.000
    N3905    N        0.63855    0.30669    0.05500    1.000
    Si3906   Si       0.64777    0.38925    0.10740    1.000
    N3907    N        0.67536    0.42035    0.09178    1.000
    N3908    N        0.67847    0.48256    0.10107    1.000
    Si3909   Si       0.65313    0.45234    0.07516    1.000
    N3910    N        0.64353    0.43984    0.03478    1.000
    Si3911   Si       0.69434    0.32096    0.12353    1.000
    N3912    N        0.67335    0.31956    0.16205    1.000
    N3913    N        0.65496    0.37042    0.20465    1.000
    Si3914   Si       0.69066    0.34921    0.19191    1.000
    N3915    N        0.65407    0.48864    0.16430    1.000
    Si3916   Si       0.68543    0.49712    0.19386    1.000
    N3917    N        0.67867    0.48929    0.23504    1.000
    Si3918   Si       0.66194    0.45858    0.13396    1.000
    Si3919   Si       0.67060    0.38875    0.24422    1.000
    N3920    N        0.66652    0.42173    0.15870    1.000
    N3921    N        0.69272    0.41998    0.22684    1.000
    Si3922   Si       0.63606    0.39559    0.03502    1.000
    Si3923   Si       0.63268    0.30069    0.15816    1.000
    Si3924   Si       0.65794    0.35387    0.31256    1.000
    N3925    N        0.67802    0.28991    0.27029    1.000
    N3926    N        0.68152    0.33134    0.34199    1.000
    Si3927   Si       0.66458    0.29380    0.36029    1.000
    N3928    N        0.68156    0.36121    0.27560    1.000
    N3929    N        0.63922    0.27389    0.33061    1.000
    Si3930   Si       0.63817    0.28972    0.28867    1.000
    N3931    N        0.64672    0.39123    0.32631    1.000
    Si3932   Si       0.65143    0.42433    0.29826    1.000
    N3933    N        0.67257    0.47610    0.34962    1.000
    N3934    N        0.68290    0.39258    0.45852    1.000
    Si3935   Si       0.63637    0.49033    0.32833    1.000
    Si3936   Si       0.64898    0.49320    0.44802    1.000
    Si3937   Si       0.66283    0.35230    0.45687    1.000
    N3938    N        0.64735    0.36437    0.41992    1.000
    N3939    N        0.68761    0.31891    0.46492    1.000
    N3940    N        0.63989    0.35858    0.49184    1.000
    N3941    N        0.67958    0.50781    0.47611    1.000
    N3942    N        0.67344    0.49108    0.41149    1.000
    Si3943   Si       0.66793    0.45466    0.38885    1.000
    N3944    N        0.64621    0.44461    0.44084    1.000
    Si3945   Si       0.66139    0.40833    0.42057    1.000
    N3946    N        0.69743    0.42332    0.39769    1.000
    N3947    N        0.63541    0.30057    0.39198    1.000
    N3948    N        0.64653    0.35701    0.58117    1.000
    Si3949   Si       0.65719    0.32506    0.60827    1.000
    N3950    N        0.69102    0.38766    0.53094    1.000
    Si3951   Si       0.67330    0.39178    0.57177    1.000
    Si3952   Si       0.67360    0.46575    0.57178    1.000
    N3953    N        0.65017    0.42904    0.56758    1.000
    N3954    N        0.65818    0.48653    0.60771    1.000
    N3955    N        0.67772    0.50488    0.55035    1.000
    Si3956   Si       0.66532    0.39414    0.49933    1.000
    N3957    N        0.64618    0.33712    0.64793    1.000
    N3958    N        0.64530    0.28015    0.68073    1.000
    Si3959   Si       0.66501    0.31831    0.68351    1.000
    N3960    N        0.67589    0.35190    0.71138    1.000
    N3961    N        0.65276    0.48004    0.73600    1.000
    N3962    N        0.68182    0.42290    0.71270    1.000
    Si3963   Si       0.64668    0.50000    0.69741    1.000
    Si3964   Si       0.65547    0.38967    0.71555    1.000
    Si3965   Si       0.66950    0.47096    0.64717    1.000
    N3966    N        0.68302    0.50691    0.67209    1.000
    N3967    N        0.65952    0.29652    0.78810    1.000
    N3968    N        0.68999    0.35826    0.77338    1.000
    Si3969   Si       0.67179    0.32772    0.75029    1.000
    N3970    N        0.63724    0.28528    0.85541    1.000
    N3971    N        0.65444    0.43782    0.91370    1.000
    Si3972   Si       0.66140    0.45312    0.80452    1.000
    N3973    N        0.68842    0.42976    0.78021    1.000
    N3974    N        0.64474    0.45221    0.84284    1.000
    N3975    N        0.68631    0.48866    0.80949    1.000
    N3976    N        0.64416    0.28822    0.92597    1.000
    N3977    N        0.68400    0.32482    0.88300    1.000
    Si3978   Si       0.65015    0.29079    0.96866    1.000
    Si3979   Si       0.64423    0.31184    0.88995    1.000
    N3980    N        0.64497    0.37506    0.94188    1.000
    N3981    N        0.66879    0.32046    0.99242    1.000
    Si3982   Si       0.65438    0.45281    0.99422    1.000
    N3983    N        0.66110    0.50270    0.89600    1.000
    N3984    N        0.68110    0.42305    0.97809    1.000
    N3985    N        0.66942    0.49416    0.99389    1.000
    Si3986   Si       0.66621    0.46118    0.87962    1.000
    Si3987   Si       0.67470    0.40508    0.93618    1.000
    N3988    N        0.67968    0.25682    0.96571    1.000
    Si3989   Si       0.68666    0.45310    0.74105    1.000
    N3990    N        0.68896    0.38381    0.84009    1.000
    Si3991   Si       0.67132    0.25861    0.85076    1.000
    N3992    N        0.65752    0.59935    0.05190    1.000
    Si3993   Si       0.65891    0.52151    0.09689    1.000
    Si3994   Si       0.68455    0.56853    0.06753    1.000
    Si3995   Si       0.65229    0.59941    0.00624    1.000
    N3996    N        0.66172    0.53249    0.05543    1.000
    Si3997   Si       0.64578    0.52133    0.01715    1.000
    N3998    N        0.68219    0.55639    0.11068    1.000
    Si3999   Si       0.67415    0.66129    0.05951    1.000
    N4000    N        0.67499    0.70412    0.06568    1.000
    Si4001   Si       0.64879    0.73475    0.05075    1.000
    N4002    N        0.64822    0.64975    0.09424    1.000
    N4003    N        0.65049    0.66344    0.02344    1.000
    N4004    N        0.64822    0.73299    0.00614    1.000
    Si4005   Si       0.66646    0.69419    0.99574    1.000
    Si4006   Si       0.64722    0.56031    0.19633    1.000
    N4007    N        0.64286    0.60362    0.18367    1.000
    N4008    N        0.68780    0.54439    0.18621    1.000
    N4009    N        0.63712    0.55207    0.23778    1.000
    Si4010   Si       0.66538    0.64196    0.18938    1.000
    N4011    N        0.64653    0.74359    0.23877    1.000
    Si4012   Si       0.63850    0.67127    0.12983    1.000
    N4013    N        0.64889    0.67047    0.22147    1.000
    N4014    N        0.67191    0.67031    0.15634    1.000
    N4015    N        0.66065    0.59796    0.32695    1.000
    Si4016   Si       0.66668    0.52348    0.25846    1.000
    Si4017   Si       0.67422    0.59102    0.36879    1.000
    N4018    N        0.63995    0.51577    0.29145    1.000
    Si4019   Si       0.65969    0.73441    0.27860    1.000
    N4020    N        0.66762    0.69234    0.28399    1.000
    Si4021   Si       0.65879    0.65725    0.26163    1.000
    N4022    N        0.67666    0.71706    0.34225    1.000
    Si4023   Si       0.65069    0.63801    0.43036    1.000
    Si4024   Si       0.69211    0.52658    0.39783    1.000
    N4025    N        0.64439    0.61539    0.39328    1.000
    N4026    N        0.64467    0.61975    0.47056    1.000
    N4027    N        0.66259    0.55032    0.37699    1.000
    N4028    N        0.67622    0.67364    0.42847    1.000
    Si4029   Si       0.63966    0.69900    0.42428    1.000
    N4030    N        0.69191    0.62842    0.26664    1.000
    Si4031   Si       0.66818    0.52603    0.58877    1.000
    Si4032   Si       0.66639    0.52439    0.51334    1.000
    N4033    N        0.67957    0.56553    0.51381    1.000
    N4034    N        0.66569    0.63123    0.53609    1.000
    Si4035   Si       0.67174    0.60689    0.50107    1.000
    N4036    N        0.63922    0.55547    0.57980    1.000
    N4037    N        0.68029    0.64074    0.59641    1.000
    N4038    N        0.68253    0.71151    0.57179    1.000
    Si4039   Si       0.65645    0.74491    0.56069    1.000
    Si4040   Si       0.66732    0.68355    0.60056    1.000
    N4041    N        0.66962    0.58356    0.70493    1.000
    N4042    N        0.64964    0.58481    0.63995    1.000
    Si4043   Si       0.66163    0.62599    0.63589    1.000
    N4044    N        0.64279    0.74527    0.65989    1.000
    N4045    N        0.68418    0.69241    0.64075    1.000
    N4046    N        0.68914    0.72524    0.70597    1.000
    Si4047   Si       0.66388    0.71109    0.67587    1.000
    N4048    N        0.66921    0.55300    0.82756    1.000
    Si4049   Si       0.66628    0.52364    0.79395    1.000
    N4050    N        0.66301    0.61982    0.81099    1.000
    N4051    N        0.68888    0.54188    0.76112    1.000
    Si4052   Si       0.64234    0.58791    0.83117    1.000
    Si4053   Si       0.67242    0.58025    0.74916    1.000
    Si4054   Si       0.64885    0.71983    0.79213    1.000
    N4055    N        0.68869    0.72828    0.78013    1.000
    N4056    N        0.64632    0.60427    0.87115    1.000
    N4057    N        0.68449    0.60929    0.97922    1.000
    Si4058   Si       0.67226    0.58870    0.90568    1.000
    N4059    N        0.68709    0.62712    0.91291    1.000
    N4060    N        0.64163    0.67890    0.77762    1.000
    N4061    N        0.65791    0.67596    0.95533    1.000
    Si4062   Si       0.65590    0.64900    0.88138    1.000
    Si4063   Si       0.68684    0.64437    0.95194    1.000
    N4064    N        0.69066    0.67844    0.88183    1.000
    N4065    N        0.64199    0.55874    0.99454    1.000
    Si4066   Si       0.65808    0.84410    0.09788    1.000
    N4067    N        0.65948    0.77637    0.06003    1.000
    N4068    N        0.64195    0.83869    0.05630    1.000
    N4069    N        0.65783    0.87885    0.99834    1.000
    Si4070   Si       0.63950    0.84271    0.01267    1.000
    N4071    N        0.65439    0.88297    0.11374    1.000
    N4072    N        0.66079    0.94861    0.00857    1.000
    Si4073   Si       0.65163    0.96609    0.04742    1.000
    N4074    N        0.66029    0.94861    0.08801    1.000
    Si4075   Si       0.68103    0.91637    0.10304    1.000
    Si4076   Si       0.63788    0.97576    0.11411    1.000
    Si4077   Si       0.65138    0.99535    0.18477    1.000
    N4078    N        0.67675    0.80491    0.22166    1.000
    Si4079   Si       0.64051    0.77965    0.21365    1.000
    Si4080   Si       0.66084    0.84434    0.20833    1.000
    N4081    N        0.63767    0.84414    0.17200    1.000
    N4082    N        0.69232    0.87465    0.20005    1.000
    N4083    N        0.63671    0.91264    0.17678    1.000
    N4084    N        0.66560    0.98133    0.14707    1.000
    Si4085   Si       0.67940    0.91514    0.18266    1.000
    N4086    N        0.63543    0.77201    0.17122    1.000
    N4087    N        0.66682    0.00633    0.04859    1.000
    Si4088   Si       0.64031    0.99487    0.24595    1.000
    N4089    N        0.65669    0.80778    0.99209    1.000
    N4090    N        0.66528    0.78973    0.35212    1.000
    Si4091   Si       0.65065    0.82554    0.32854    1.000
    Si4092   Si       0.67048    0.87150    0.27238    1.000
    N4093    N        0.68268    0.84040    0.30237    1.000
    N4094    N        0.64012    0.85487    0.24669    1.000
    Si4095   Si       0.65899    0.98672    0.39010    1.000
    N4096    N        0.67880    0.91044    0.35813    1.000
    Si4097   Si       0.66829    0.99527    0.31318    1.000
    Si4098   Si       0.64604    0.90242    0.32989    1.000
    N4099    N        0.64651    0.00212    0.35143    1.000
    N4100    N        0.64356    0.90345    0.28564    1.000
    N4101    N        0.68867    0.89131    0.43264    1.000
    N4102    N        0.64316    0.78014    0.41831    1.000
    N4103    N        0.68936    0.76703    0.47534    1.000
    Si4104   Si       0.66955    0.80313    0.39266    1.000
    N4105    N        0.65763    0.84590    0.39284    1.000
    Si4106   Si       0.68591    0.88223    0.38974    1.000
    Si4107   Si       0.64895    0.76365    0.45905    1.000
    N4108    N        0.63852    0.92158    0.47142    1.000
    Si4109   Si       0.65604    0.88440    0.45989    1.000
    Si4110   Si       0.69061    0.75871    0.33582    1.000
    N4111    N        0.69695    0.98623    0.46038    1.000
    N4112    N        0.63803    0.97596    0.28556    1.000
    N4113    N        0.66470    0.84142    0.56080    1.000
    N4114    N        0.68508    0.77280    0.54509    1.000
    N4115    N        0.67226    0.79604    0.61041    1.000
    Si4116   Si       0.64093    0.85666    0.53061    1.000
    Si4117   Si       0.68954    0.80746    0.57268    1.000
    Si4118   Si       0.67977    0.87664    0.58257    1.000
    N4119    N        0.67208    0.86798    0.49911    1.000
    N4120    N        0.66726    0.91281    0.60259    1.000
    N4121    N        0.66265    0.95586    0.52219    1.000
    Si4122   Si       0.65216    0.98708    0.55239    1.000
    N4123    N        0.67019    0.98081    0.59452    1.000
    N4124    N        0.66401    0.91380    0.67688    1.000
    Si4125   Si       0.64208    0.93695    0.70604    1.000
    Si4126   Si       0.68405    0.82058    0.71680    1.000
    Si4127   Si       0.66738    0.83319    0.63250    1.000
    N4128    N        0.65931    0.84906    0.73568    1.000
    N4129    N        0.68091    0.82489    0.67225    1.000
    N4130    N        0.67363    0.78452    0.73773    1.000
    Si4131   Si       0.63826    0.77075    0.62657    1.000
    N4132    N        0.64781    0.97962    0.70982    1.000
    Si4133   Si       0.64411    0.90409    0.63897    1.000
    N4134    N        0.69532    0.00666    0.53584    1.000
    Si4135   Si       0.69505    0.97436    0.50181    1.000
    N4136    N        0.64893    0.92096    0.74593    1.000
    N4137    N        0.67464    0.83557    0.85711    1.000
    Si4138   Si       0.66157    0.82933    0.81673    1.000
    N4139    N        0.64167    0.86268    0.80047    1.000
    Si4140   Si       0.67516    0.86731    0.77133    1.000
    N4141    N        0.64423    0.79241    0.80759    1.000
    Si4142   Si       0.66526    0.98519    0.80581    1.000
    N4143    N        0.68229    0.91431    0.85141    1.000
    Si4144   Si       0.68997    0.93205    0.75424    1.000
    Si4145   Si       0.64164    0.93133    0.85760    1.000
    N4146    N        0.63614    0.96323    0.88556    1.000
    N4147    N        0.63723    0.95519    0.81995    1.000
    Si4148   Si       0.65014    0.81706    0.88813    1.000
    Si4149   Si       0.68458    0.84854    0.93228    1.000
    N4150    N        0.68797    0.80813    0.91388    1.000
    N4151    N        0.64087    0.84865    0.92274    1.000
    Si4152   Si       0.68752    0.76836    0.93273    1.000
    Si4153   Si       0.63780    0.76868    0.98541    1.000
    N4154    N        0.63986    0.01121    0.78121    1.000
    N4155    N        0.68868    0.98597    0.94381    1.000
    N4156    N        0.69416    0.98523    0.83904    1.000
    Si4157   Si       0.63440    0.91608    0.99513    1.000
    Si4158   Si       0.63657    0.78390    0.76498    1.000
    N4159    N        0.64675    0.76049    0.94443    1.000
    N4160    N        0.71297    0.05892    0.02501    1.000
    N4161    N        0.72240    0.11505    0.06612    1.000
    Si4162   Si       0.74978    0.07263    0.00696    1.000
    Si4163   Si       0.73119    0.13455    0.10528    1.000
    N4164    N        0.71964    0.20707    0.06849    1.000
    Si4165   Si       0.72491    0.20492    0.11365    1.000
    Si4166   Si       0.74567    0.20046    0.03089    1.000
    N4167    N        0.75087    0.15857    0.01800    1.000
    Si4168   Si       0.68947    0.02421    0.01753    1.000
    N4169    N        0.70605    0.16564    0.12169    1.000
    Si4170   Si       0.71279    0.07965    0.14459    1.000
    N4171    N        0.73664    0.05309    0.20781    1.000
    N4172    N        0.74361    0.04768    0.14015    1.000
    N4173    N        0.74865    0.11034    0.13809    1.000
    Si4174   Si       0.74778    0.02553    0.17654    1.000
    N4175    N        0.74866    0.20410    0.20215    1.000
    N4176    N        0.71032    0.23117    0.14481    1.000
    Si4177   Si       0.72726    0.23764    0.18554    1.000
    Si4178   Si       0.73153    0.19219    0.24057    1.000
    N4179    N        0.74257    0.07615    0.26994    1.000
    Si4180   Si       0.70687    0.10687    0.34563    1.000
    N4181    N        0.73752    0.12440    0.32163    1.000
    Si4182   Si       0.70103    0.06628    0.28145    1.000
    Si4183   Si       0.72170    0.16010    0.30095    1.000
    N4184    N        0.72785    0.19049    0.33194    1.000
    N4185    N        0.72744    0.22402    0.27055    1.000
    N4186    N        0.74870    0.16222    0.26608    1.000
    Si4187   Si       0.74701    0.22499    0.31381    1.000
    N4188    N        0.72363    0.08761    0.37791    1.000
    N4189    N        0.71072    0.04625    0.43247    1.000
    N4190    N        0.73492    0.16493    0.40490    1.000
    Si4191   Si       0.72173    0.18617    0.44122    1.000
    Si4192   Si       0.70860    0.17522    0.36927    1.000
    N4193    N        0.74454    0.17941    0.47710    1.000
    N4194    N        0.72224    0.22899    0.43635    1.000
    Si4195   Si       0.74201    0.22452    0.48530    1.000
    Si4196   Si       0.70503    0.25941    0.25570    1.000
    N4197    N        0.72508    0.09037    0.58089    1.000
    N4198    N        0.71464    0.06726    0.51910    1.000
    Si4199   Si       0.70700    0.11420    0.61428    1.000
    Si4200   Si       0.70204    0.10023    0.54612    1.000
    N4201    N        0.73203    0.14336    0.63155    1.000
    N4202    N        0.71152    0.13926    0.52979    1.000
    Si4203   Si       0.74676    0.15017    0.50910    1.000
    N4204    N        0.71285    0.20263    0.55941    1.000
    N4205    N        0.70066    0.23157    0.49912    1.000
    Si4206   Si       0.69594    0.23942    0.54292    1.000
    N4207    N        0.72825    0.06370    0.71855    1.000
    N4208    N        0.69961    0.09726    0.65491    1.000
    Si4209   Si       0.72214    0.20337    0.69378    1.000
    Si4210   Si       0.71291    0.13531    0.67483    1.000
    N4211    N        0.74190    0.20248    0.73350    1.000
    N4212    N        0.70128    0.24315    0.69164    1.000
    N4213    N        0.74811    0.20655    0.65817    1.000
    Si4214   Si       0.75532    0.07047    0.50642    1.000
    Si4215   Si       0.71859    0.02045    0.84291    1.000
    Si4216   Si       0.71736    0.08839    0.81077    1.000
    N4217    N        0.74243    0.11759    0.83083    1.000
    N4218    N        0.74768    0.07936    0.78104    1.000
    N4219    N        0.74664    0.01460    0.80851    1.000
    Si4220   Si       0.72295    0.09846    0.74713    1.000
    N4221    N        0.69767    0.05740    0.83194    1.000
    N4222    N        0.75477    0.09542    0.90774    1.000
    N4223    N        0.75090    0.13479    0.75368    1.000
    N4224    N        0.72819    0.24631    0.78138    1.000
    Si4225   Si       0.70785    0.21893    0.80977    1.000
    Si4226   Si       0.73597    0.17412    0.76572    1.000
    N4227    N        0.73556    0.21659    0.84406    1.000
    N4228    N        0.70280    0.18133    0.79003    1.000
    N4229    N        0.74426    0.09979    0.97396    1.000
    N4230    N        0.71725    0.04049    0.94251    1.000
    Si4231   Si       0.72579    0.08487    0.93624    1.000
    Si4232   Si       0.73944    0.01308    0.96865    1.000
    Si4233   Si       0.72694    0.20002    0.95749    1.000
    N4234    N        0.74268    0.22000    0.92064    1.000
    N4235    N        0.71221    0.13842    0.88402    1.000
    N4236    N        0.75009    0.16447    0.94765    1.000
    Si4237   Si       0.72918    0.23854    0.88306    1.000
    N4238    N        0.73700    0.22107    0.99548    1.000
    N4239    N        0.70791    0.32053    0.04815    1.000
    Si4240   Si       0.71038    0.32814    0.00437    1.000
    Si4241   Si       0.69955    0.35954    0.06563    1.000
    N4242    N        0.73529    0.38090    0.07859    1.000
    Si4243   Si       0.74704    0.48887    0.16845    1.000
    Si4244   Si       0.70446    0.40340    0.00832    1.000
    Si4245   Si       0.72401    0.48904    0.09682    1.000
    Si4246   Si       0.74363    0.46869    0.02896    1.000
    N4247    N        0.71919    0.43396    0.03816    1.000
    N4248    N        0.73944    0.44840    0.10397    1.000
    Si4249   Si       0.71710    0.42156    0.07921    1.000
    N4250    N        0.73166    0.50053    0.05529    1.000
    N4251    N        0.73651    0.32744    0.12758    1.000
    N4252    N        0.74424    0.27889    0.18605    1.000
    N4253    N        0.71459    0.33495    0.22438    1.000
    N4254    N        0.71116    0.46566    0.17916    1.000
    N4255    N        0.71655    0.38402    0.18049    1.000
    Si4256   Si       0.70159    0.42377    0.18358    1.000
    Si4257   Si       0.71127    0.25684    0.99789    1.000
    Si4258   Si       0.72421    0.34186    0.33483    1.000
    N4259    N        0.74352    0.26685    0.32122    1.000
    Si4260   Si       0.73779    0.27730    0.36341    1.000
    N4261    N        0.73873    0.28637    0.25531    1.000
    Si4262   Si       0.70667    0.32505    0.26633    1.000
    N4263    N        0.74360    0.33238    0.29821    1.000
    N4264    N        0.74459    0.31919    0.36531    1.000
    N4265    N        0.69318    0.43639    0.29186    1.000
    N4266    N        0.74991    0.39781    0.27770    1.000
    N4267    N        0.72608    0.38563    0.34375    1.000
    Si4268   Si       0.71429    0.48636    0.34301    1.000
    Si4269   Si       0.72657    0.41598    0.31321    1.000
    N4270    N        0.74371    0.45103    0.33733    1.000
    Si4271   Si       0.70025    0.45531    0.24991    1.000
    N4272    N        0.74327    0.46189    0.24890    1.000
    N4273    N        0.69825    0.26974    0.37634    1.000
    N4274    N        0.73765    0.35772    0.48630    1.000
    N4275    N        0.73190    0.36871    0.41560    1.000
    Si4276   Si       0.72887    0.31665    0.46993    1.000
    N4277    N        0.74483    0.30017    0.43264    1.000
    Si4278   Si       0.75092    0.46516    0.47504    1.000
    N4279    N        0.74733    0.42160    0.46569    1.000
    Si4280   Si       0.73084    0.40103    0.38446    1.000
    N4281    N        0.72683    0.50920    0.37721    1.000
    N4282    N        0.74287    0.49638    0.44646    1.000
    Si4283   Si       0.72571    0.38603    0.45457    1.000
    Si4284   Si       0.72898    0.35164    0.59332    1.000
    Si4285   Si       0.71354    0.28065    0.60475    1.000
    N4286    N        0.73659    0.34079    0.55267    1.000
    Si4287   Si       0.73121    0.37468    0.52612    1.000
    N4288    N        0.71995    0.27241    0.56182    1.000
    Si4289   Si       0.74462    0.30128    0.53988    1.000
    N4290    N        0.74916    0.29009    0.49772    1.000
    N4291    N        0.69961    0.32032    0.60373    1.000
    N4292    N        0.70578    0.38868    0.59864    1.000
    N4293    N        0.71339    0.45190    0.57599    1.000
    N4294    N        0.74506    0.47571    0.51679    1.000
    Si4295   Si       0.72165    0.42701    0.61092    1.000
    Si4296   Si       0.74838    0.44979    0.55069    1.000
    Si4297   Si       0.71907    0.27825    0.71027    1.000
    N4298    N        0.71028    0.31086    0.68079    1.000
    Si4299   Si       0.71977    0.34815    0.69907    1.000
    N4300    N        0.74894    0.36090    0.72967    1.000
    N4301    N        0.72767    0.38150    0.67112    1.000
    N4302    N        0.75324    0.27663    0.62204    1.000
    N4303    N        0.70077    0.44056    0.64835    1.000
    Si4304   Si       0.71475    0.42077    0.68419    1.000
    N4305    N        0.72143    0.48106    0.73538    1.000
    N4306    N        0.74713    0.49714    0.63276    1.000
    N4307    N        0.70421    0.28098    0.83665    1.000
    Si4308   Si       0.70898    0.28564    0.79048    1.000
    N4309    N        0.74241    0.31686    0.79496    1.000
    Si4310   Si       0.73372    0.35133    0.76904    1.000
    Si4311   Si       0.72209    0.30825    0.86746    1.000
    N4312    N        0.73944    0.34768    0.86835    1.000
    N4313    N        0.70384    0.29827    0.74598    1.000
    N4314    N        0.72587    0.36848    0.99536    1.000
    N4315    N        0.74124    0.38377    0.79725    1.000
    Si4316   Si       0.71799    0.47977    0.83703    1.000
    Si4317   Si       0.69679    0.39164    0.79871    1.000
    N4318    N        0.70610    0.45429    0.86994    1.000
    Si4319   Si       0.69899    0.36516    0.87685    1.000
    N4320    N        0.74967    0.27644    0.88636    1.000
    N4321    N        0.73320    0.29414    0.99215    1.000
    N4322    N        0.75049    0.33776    0.93796    1.000
    N4323    N        0.75261    0.44442    0.91932    1.000
    N4324    N        0.70660    0.39319    0.90861    1.000
    N4325    N        0.73731    0.48090    0.98859    1.000
    Si4326   Si       0.73200    0.42265    0.88966    1.000
    Si4327   Si       0.75337    0.47702    0.94622    1.000
    N4328    N        0.72283    0.50871    0.93601    1.000
    N4329    N        0.72454    0.57278    0.05505    1.000
    Si4330   Si       0.74125    0.61244    0.04623    1.000
    Si4331   Si       0.74503    0.53738    0.03511    1.000
    N4332    N        0.74582    0.61419    0.00091    1.000
    N4333    N        0.72086    0.54478    0.99800    1.000
    N4334    N        0.71319    0.64408    0.04913    1.000
    Si4335   Si       0.71096    0.72116    0.08050    1.000
    Si4336   Si       0.73304    0.67638    0.02338    1.000
    N4337    N        0.74198    0.70491    0.05533    1.000
    Si4338   Si       0.74582    0.75459    0.11832    1.000
    N4339    N        0.73975    0.65269    0.14688    1.000
    Si4340   Si       0.72666    0.62037    0.23802    1.000
    Si4341   Si       0.70596    0.54806    0.14541    1.000
    N4342    N        0.73936    0.57817    0.15461    1.000
    Si4343   Si       0.72114    0.55106    0.21552    1.000
    Si4344   Si       0.73857    0.61750    0.17342    1.000
    N4345    N        0.74252    0.51468    0.20504    1.000
    N4346    N        0.74843    0.58389    0.22267    1.000
    N4347    N        0.70364    0.62420    0.19916    1.000
    N4348    N        0.72911    0.51339    0.13567    1.000
    N4349    N        0.72033    0.71846    0.12355    1.000
    N4350    N        0.72873    0.70088    0.18660    1.000
    N4351    N        0.73431    0.75400    0.23545    1.000
    Si4352   Si       0.71133    0.68595    0.14856    1.000
    N4353    N        0.70785    0.69695    0.99526    1.000
    Si4354   Si       0.73118    0.54522    0.28812    1.000
    N4355    N        0.73166    0.58499    0.30620    1.000
    N4356    N        0.70421    0.54618    0.25382    1.000
    Si4357   Si       0.69564    0.61183    0.30646    1.000
    N4358    N        0.71463    0.51439    0.30997    1.000
    N4359    N        0.73417    0.67742    0.38934    1.000
    N4360    N        0.73517    0.69802    0.29714    1.000
    Si4361   Si       0.73522    0.73802    0.27483    1.000
    N4362    N        0.70329    0.64807    0.33254    1.000
    Si4363   Si       0.73121    0.64162    0.36509    1.000
    N4364    N        0.73149    0.75145    0.35373    1.000
    Si4365   Si       0.69855    0.68928    0.31521    1.000
    N4366    N        0.71652    0.60121    0.37910    1.000
    Si4367   Si       0.73272    0.57951    0.41168    1.000
    N4368    N        0.70490    0.55148    0.42998    1.000
    Si4369   Si       0.71569    0.52666    0.46387    1.000
    N4370    N        0.71526    0.61037    0.49077    1.000
    Si4371   Si       0.74924    0.62879    0.47164    1.000
    N4372    N        0.69729    0.75553    0.29165    1.000
    N4373    N        0.71661    0.72772    0.42581    1.000
    Si4374   Si       0.71639    0.68492    0.43168    1.000
    N4375    N        0.74310    0.67107    0.46248    1.000
    Si4376   Si       0.73711    0.72415    0.38792    1.000
    N4377    N        0.72256    0.59152    0.55724    1.000
    Si4378   Si       0.73395    0.56381    0.58773    1.000
    Si4379   Si       0.72243    0.57644    0.51591    1.000
    N4380    N        0.70377    0.54064    0.60617    1.000
    Si4381   Si       0.70233    0.62877    0.56144    1.000
    N4382    N        0.72682    0.71862    0.51284    1.000
    N4383    N        0.72986    0.65851    0.54671    1.000
    Si4384   Si       0.72103    0.70267    0.55318    1.000
    N4385    N        0.75158    0.72206    0.57699    1.000
    N4386    N        0.74687    0.66449    0.61852    1.000
    N4387    N        0.72821    0.56079    0.66865    1.000
    Si4388   Si       0.71619    0.52534    0.64716    1.000
    Si4389   Si       0.70800    0.59739    0.68507    1.000
    N4390    N        0.74707    0.61233    0.70405    1.000
    N4391    N        0.69850    0.62849    0.65847    1.000
    Si4392   Si       0.73209    0.72401    0.69212    1.000
    Si4393   Si       0.69742    0.74860    0.74243    1.000
    N4394    N        0.73887    0.68029    0.68859    1.000
    N4395    N        0.74915    0.73345    0.65230    1.000
    N4396    N        0.74005    0.74989    0.72535    1.000
    Si4397   Si       0.71920    0.66541    0.65243    1.000
    N4398    N        0.75284    0.55520    0.72926    1.000
    N4399    N        0.74038    0.54117    0.49787    1.000
    N4400    N        0.72616    0.58840    0.82875    1.000
    N4401    N        0.70749    0.60486    0.76227    1.000
    Si4402   Si       0.70452    0.61642    0.80332    1.000
    Si4403   Si       0.70888    0.55380    0.84678    1.000
    N4404    N        0.72226    0.51569    0.86001    1.000
    Si4405   Si       0.72535    0.52442    0.74840    1.000
    Si4406   Si       0.75105    0.60573    0.74890    1.000
    N4407    N        0.73011    0.64842    0.81709    1.000
    N4408    N        0.72449    0.73831    0.84824    1.000
    Si4409   Si       0.72585    0.73449    0.80335    1.000
    N4410    N        0.73933    0.57946    0.94429    1.000
    Si4411   Si       0.74023    0.58482    0.90110    1.000
    Si4412   Si       0.72137    0.58642    0.98245    1.000
    N4413    N        0.74773    0.62139    0.88118    1.000
    Si4414   Si       0.70118    0.51908    0.89858    1.000
    N4415    N        0.70180    0.56332    0.89135    1.000
    Si4416   Si       0.70716    0.50856    0.97717    1.000
    Si4417   Si       0.72595    0.70290    0.95392    1.000
    Si4418   Si       0.72508    0.65367    0.89820    1.000
    N4419    N        0.72969    0.65835    0.94652    1.000
    N4420    N        0.75211    0.69074    0.89396    1.000
    Si4421   Si       0.71761    0.71516    0.88367    1.000
    N4422    N        0.70823    0.73060    0.92408    1.000
    N4423    N        0.71564    0.81287    0.02834    1.000
    Si4424   Si       0.74310    0.84463    0.03544    1.000
    Si4425   Si       0.73678    0.83186    0.11293    1.000
    N4426    N        0.72108    0.76390    0.08187    1.000
    N4427    N        0.72513    0.88439    0.02669    1.000
    N4428    N        0.69571    0.82601    0.09556    1.000
    Si4429   Si       0.69810    0.79521    0.06341    1.000
    N4430    N        0.72086    0.90186    0.09067    1.000
    Si4431   Si       0.74478    0.90939    0.05660    1.000
    N4432    N        0.73161    0.97791    0.11203    1.000
    N4433    N        0.71798    0.99342    0.00108    1.000
    N4434    N        0.74738    0.95098    0.05233    1.000
    N4435    N        0.73895    0.81451    0.19663    1.000
    Si4436   Si       0.72144    0.79552    0.23064    1.000
    N4437    N        0.73538    0.86121    0.14398    1.000
    Si4438   Si       0.73061    0.85661    0.18701    1.000
    N4439    N        0.75423    0.88757    0.20406    1.000
    N4440    N        0.70217    0.93696    0.21211    1.000
    Si4441   Si       0.73558    0.90271    0.13209    1.000
    N4442    N        0.69973    0.92411    0.14420    1.000
    N4443    N        0.72634    0.98970    0.17898    1.000
    Si4444   Si       0.71306    0.97972    0.21888    1.000
    Si4445   Si       0.72102    0.89985    0.22826    1.000
    Si4446   Si       0.70631    0.96852    0.14454    1.000
    Si4447   Si       0.72378    0.84922    0.29054    1.000
    N4448    N        0.74183    0.82102    0.26289    1.000
    N4449    N        0.71035    0.88228    0.26562    1.000
    N4450    N        0.73735    0.98304    0.25633    1.000
    Si4451   Si       0.70781    0.94470    0.35535    1.000
    Si4452   Si       0.72931    0.99987    0.29553    1.000
    N4453    N        0.70447    0.97221    0.32031    1.000
    N4454    N        0.74860    0.93152    0.34681    1.000
    N4455    N        0.72236    0.86572    0.37625    1.000
    N4456    N        0.70964    0.79922    0.40819    1.000
    Si4457   Si       0.73622    0.83452    0.40343    1.000
    Si4458   Si       0.71549    0.76879    0.43971    1.000
    N4459    N        0.74362    0.85342    0.44250    1.000
    N4460    N        0.75435    0.78511    0.45448    1.000
    N4461    N        0.73463    0.90092    0.48779    1.000
    Si4462   Si       0.73204    0.89588    0.44463    1.000
    N4463    N        0.69848    0.96846    0.39097    1.000
    N4464    N        0.74736    0.93252    0.43101    1.000
    Si4465   Si       0.72161    0.96751    0.42872    1.000
    Si4466   Si       0.71526    0.87229    0.51256    1.000
    N4467    N        0.73168    0.82015    0.57701    1.000
    N4468    N        0.73679    0.83396    0.51078    1.000
    Si4469   Si       0.74297    0.84545    0.61185    1.000
    N4470    N        0.75468    0.77392    0.52528    1.000
    Si4471   Si       0.71243    0.76216    0.51254    1.000
    Si4472   Si       0.74621    0.90854    0.56841    1.000
    N4473    N        0.70999    0.88878    0.55236    1.000
    Si4474   Si       0.73003    0.98168    0.55287    1.000
    N4475    N        0.73199    0.95889    0.51543    1.000
    N4476    N        0.73254    0.94700    0.58299    1.000
    Si4477   Si       0.69487    0.94723    0.60670    1.000
    N4478    N        0.70092    0.85713    0.61824    1.000
    N4479    N        0.72633    0.83158    0.71523    1.000
    Si4480   Si       0.72007    0.84432    0.67248    1.000
    N4481    N        0.73151    0.88802    0.67377    1.000
    N4482    N        0.71609    0.93487    0.71975    1.000
    Si4483   Si       0.70553    0.92238    0.67904    1.000
    N4484    N        0.74052    0.99393    0.70390    1.000
    N4485    N        0.71077    0.95147    0.64732    1.000
    Si4486   Si       0.72560    0.99090    0.66315    1.000
    Si4487   Si       0.75369    0.95904    0.72438    1.000
    Si4488   Si       0.73556    0.81311    0.79814    1.000
    N4489    N        0.73412    0.87432    0.84174    1.000
    N4490    N        0.73277    0.77284    0.78427    1.000
    N4491    N        0.69912    0.83549    0.79161    1.000
    N4492    N        0.75096    0.80794    0.83875    1.000
    Si4493   Si       0.69585    0.87498    0.86541    1.000
    N4494    N        0.70423    0.89824    0.77736    1.000
    Si4495   Si       0.73574    0.89954    0.80576    1.000
    Si4496   Si       0.73784    0.97480    0.79428    1.000
    N4497    N        0.74041    0.94137    0.82350    1.000
    Si4498   Si       0.71002    0.94736    0.85420    1.000
    N4499    N        0.69673    0.96741    0.77746    1.000
    N4500    N        0.71673    0.77859    0.96431    1.000
    N4501    N        0.70704    0.84817    0.96800    1.000
    Si4502   Si       0.70022    0.81038    0.98961    1.000
    N4503    N        0.70083    0.88009    0.90776    1.000
    N4504    N        0.70690    0.92220    0.96455    1.000
    N4505    N        0.71675    0.95039    0.89479    1.000
    Si4506   Si       0.70035    0.88546    0.99101    1.000
    Si4507   Si       0.72047    0.91556    0.92165    1.000
    Si4508   Si       0.72349    0.99000    0.91301    1.000
    Si4509   Si       0.75171    0.76450    0.94372    1.000
    Si4510   Si       0.69283    0.96179    0.98013    1.000
    N4511    N        0.73893    0.01181    0.87841    1.000
    N4512    N        0.77886    0.09479    0.03136    1.000
    N4513    N        0.80418    0.06436    0.09683    1.000
    Si4514   Si       0.80689    0.03187    0.06868    1.000
    Si4515   Si       0.75965    0.12991    0.04934    1.000
    Si4516   Si       0.79523    0.24374    0.13240    1.000
    N4517    N        0.76525    0.15320    0.08529    1.000
    N4518    N        0.78667    0.20725    0.04559    1.000
    Si4519   Si       0.78907    0.18850    0.08677    1.000
    N4520    N        0.76851    0.21457    0.11472    1.000
    Si4521   Si       0.77706    0.07449    0.12854    1.000
    Si4522   Si       0.77504    0.11966    0.16970    1.000
    N4523    N        0.79636    0.08157    0.16659    1.000
    N4524    N        0.78965    0.02006    0.18508    1.000
    N4525    N        0.76495    0.11919    0.21407    1.000
    Si4526   Si       0.76444    0.07864    0.22935    1.000
    N4527    N        0.80851    0.06737    0.22963    1.000
    Si4528   Si       0.78840    0.19052    0.18991    1.000
    N4529    N        0.80253    0.22994    0.17346    1.000
    N4530    N        0.80475    0.17505    0.22888    1.000
    N4531    N        0.79880    0.15726    0.16504    1.000
    Si4532   Si       0.78317    0.14112    0.24783    1.000
    N4533    N        0.77661    0.06988    0.33366    1.000
    N4534    N        0.79537    0.11119    0.27488    1.000
    Si4535   Si       0.76481    0.09704    0.30210    1.000
    Si4536   Si       0.79851    0.03320    0.32503    1.000
    N4537    N        0.78934    0.21992    0.32626    1.000
    Si4538   Si       0.79326    0.22429    0.37140    1.000
    N4539    N        0.80007    0.18901    0.39519    1.000
    Si4540   Si       0.76649    0.08342    0.37374    1.000
    N4541    N        0.78687    0.12401    0.37743    1.000
    N4542    N        0.77653    0.05500    0.40366    1.000
    N4543    N        0.77056    0.04631    0.47339    1.000
    Si4544   Si       0.79827    0.11946    0.47673    1.000
    N4545    N        0.75935    0.11147    0.49211    1.000
    Si4546   Si       0.75352    0.03562    0.43475    1.000
    N4547    N        0.80509    0.14232    0.44180    1.000
    N4548    N        0.76406    0.25277    0.38849    1.000
    N4549    N        0.77874    0.24052    0.46136    1.000
    Si4550   Si       0.77546    0.15450    0.40555    1.000
    N4551    N        0.77791    0.06133    0.54348    1.000
    N4552    N        0.78313    0.05165    0.60636    1.000
    Si4553   Si       0.76736    0.08225    0.58007    1.000
    Si4554   Si       0.79683    0.02822    0.56791    1.000
    N4555    N        0.79509    0.11421    0.58338    1.000
    N4556    N        0.77712    0.21459    0.59757    1.000
    N4557    N        0.76780    0.16658    0.54413    1.000
    Si4558   Si       0.80322    0.14496    0.55260    1.000
    N4559    N        0.76453    0.23060    0.52361    1.000
    Si4560   Si       0.75630    0.20622    0.55894    1.000
    Si4561   Si       0.78943    0.02712    0.64154    1.000
    N4562    N        0.78195    0.04809    0.67886    1.000
    Si4563   Si       0.75770    0.03323    0.71457    1.000
    N4564    N        0.75632    0.14705    0.68784    1.000
    N4565    N        0.78620    0.02985    0.74634    1.000
    Si4566   Si       0.76840    0.23712    0.63376    1.000
    Si4567   Si       0.78286    0.14189    0.72292    1.000
    N4568    N        0.80086    0.25059    0.66057    1.000
    N4569    N        0.80064    0.16108    0.63235    1.000
    Si4570   Si       0.76276    0.16635    0.64987    1.000
    N4571    N        0.81566    0.16486    0.74047    1.000
    N4572    N        0.80951    0.10930    0.71554    1.000
    Si4573   Si       0.77282    0.04352    0.78519    1.000
    N4574    N        0.79626    0.09956    0.86245    1.000
    N4575    N        0.80961    0.05386    0.80734    1.000
    Si4576   Si       0.76038    0.13942    0.97923    1.000
    Si4577   Si       0.76646    0.12368    0.79415    1.000
    N4578    N        0.80900    0.19526    0.92806    1.000
    N4579    N        0.80887    0.21118    0.83717    1.000
    N4580    N        0.77198    0.17517    0.79678    1.000
    Si4581   Si       0.77153    0.19010    0.83901    1.000
    N4582    N        0.80217    0.22566    0.76004    1.000
    Si4583   Si       0.76011    0.23810    0.75183    1.000
    N4584    N        0.80017    0.03601    0.89754    1.000
    Si4585   Si       0.79237    0.07915    0.89888    1.000
    N4586    N        0.76699    0.03648    0.98978    1.000
    Si4587   Si       0.77107    0.18467    0.91276    1.000
    N4588    N        0.80257    0.13629    0.96999    1.000
    N4589    N        0.77247    0.16584    0.87376    1.000
    Si4590   Si       0.81260    0.18661    0.77947    1.000
    N4591    N        0.80880    0.11920    0.79616    1.000
    Si4592   Si       0.75181    0.12605    0.87264    1.000
    Si4593   Si       0.80447    0.01749    0.99811    1.000
    N4594    N        0.79468    0.35429    0.09613    1.000
    Si4595   Si       0.75677    0.36447    0.11397    1.000
    N4596    N        0.80222    0.42560    0.09287    1.000
    N4597    N        0.78389    0.45587    0.03412    1.000
    N4598    N        0.79218    0.49760    0.09612    1.000
    Si4599   Si       0.79926    0.42538    0.00991    1.000
    Si4600   Si       0.80403    0.46468    0.07170    1.000
    N4601    N        0.80526    0.38874    0.03213    1.000
    Si4602   Si       0.81281    0.38787    0.07519    1.000
    N4603    N        0.79077    0.28756    0.13204    1.000
    N4604    N        0.76976    0.33577    0.18645    1.000
    Si4605   Si       0.75894    0.30491    0.15595    1.000
    Si4606   Si       0.75840    0.37782    0.18410    1.000
    Si4607   Si       0.80908    0.49029    0.13856    1.000
    N4608    N        0.77901    0.40820    0.21203    1.000
    N4609    N        0.76841    0.39248    0.14314    1.000
    Si4610   Si       0.76384    0.49975    0.24072    1.000
    N4611    N        0.80368    0.49385    0.22660    1.000
    Si4612   Si       0.77464    0.43154    0.12642    1.000
    N4613    N        0.78058    0.46283    0.15544    1.000
    Si4614   Si       0.75197    0.31027    0.22023    1.000
    Si4615   Si       0.77297    0.35938    0.27996    1.000
    N4616    N        0.80199    0.27279    0.28472    1.000
    Si4617   Si       0.76227    0.29213    0.29130    1.000
    N4618    N        0.78519    0.32921    0.25026    1.000
    N4619    N        0.77305    0.41154    0.38921    1.000
    N4620    N        0.80040    0.44627    0.27529    1.000
    Si4621   Si       0.78094    0.44745    0.36288    1.000
    Si4622   Si       0.76898    0.42636    0.25023    1.000
    N4623    N        0.79535    0.34057    0.41279    1.000
    Si4624   Si       0.75850    0.50877    0.40511    1.000
    Si4625   Si       0.80339    0.38226    0.40386    1.000
    N4626    N        0.79209    0.48494    0.38411    1.000
    Si4627   Si       0.79110    0.41883    0.46878    1.000
    N4628    N        0.79511    0.46111    0.47126    1.000
    Si4629   Si       0.75416    0.33255    0.40432    1.000
    Si4630   Si       0.75536    0.25882    0.42930    1.000
    N4631    N        0.78565    0.28800    0.54555    1.000
    Si4632   Si       0.78363    0.26532    0.50754    1.000
    N4633    N        0.80427    0.35453    0.56001    1.000
    N4634    N        0.77869    0.46941    0.57586    1.000
    Si4635   Si       0.79559    0.43914    0.60375    1.000
    Si4636   Si       0.79765    0.39435    0.54559    1.000
    N4637    N        0.75601    0.40697    0.54174    1.000
    N4638    N        0.75262    0.42957    0.70491    1.000
    N4639    N        0.76147    0.34756    0.62197    1.000
    N4640    N        0.79464    0.31346    0.67411    1.000
    Si4641   Si       0.78107    0.30909    0.63170    1.000
    Si4642   Si       0.79603    0.27698    0.69505    1.000
    N4643    N        0.76078    0.26662    0.71755    1.000
    N4644    N        0.79405    0.37921    0.67993    1.000
    Si4645   Si       0.76356    0.38106    0.64859    1.000
    Si4646   Si       0.78741    0.49369    0.65137    1.000
    N4647    N        0.77893    0.49212    0.69275    1.000
    N4648    N        0.76338    0.41632    0.62178    1.000
    Si4649   Si       0.76048    0.46793    0.72279    1.000
    Si4650   Si       0.77812    0.39383    0.71643    1.000
    N4651    N        0.80776    0.39769    0.50387    1.000
    N4652    N        0.81569    0.46360    0.63480    1.000
    N4653    N        0.79266    0.35191    0.82926    1.000
    Si4654   Si       0.78533    0.31504    0.80331    1.000
    N4655    N        0.80003    0.31613    0.76383    1.000
    N4656    N        0.80592    0.28676    0.82703    1.000
    N4657    N        0.79712    0.47016    0.95378    1.000
    N4658    N        0.78203    0.46321    0.75998    1.000
    Si4659   Si       0.78727    0.44467    0.84671    1.000
    Si4660   Si       0.77750    0.48915    0.79476    1.000
    N4661    N        0.76118    0.41083    0.86085    1.000
    N4662    N        0.75755    0.46907    0.82573    1.000
    N4663    N        0.77728    0.40956    0.97724    1.000
    Si4664   Si       0.78772    0.42623    0.93603    1.000
    Si4665   Si       0.76189    0.36945    0.96832    1.000
    Si4666   Si       0.76691    0.30749    0.96838    1.000
    Si4667   Si       0.78847    0.28036    0.90446    1.000
    Si4668   Si       0.76866    0.35064    0.90087    1.000
    N4669    N        0.79231    0.28067    0.94649    1.000
    N4670    N        0.80026    0.32374    0.88960    1.000
    N4671    N        0.78799    0.33874    0.98838    1.000
    N4672    N        0.78797    0.38414    0.91931    1.000
    Si4673   Si       0.75475    0.37442    0.83703    1.000
    N4674    N        0.79370    0.57000    0.10833    1.000
    N4675    N        0.78911    0.54094    0.04076    1.000
    N4676    N        0.77968    0.62350    0.05834    1.000
    Si4677   Si       0.80870    0.60635    0.09058    1.000
    Si4678   Si       0.80439    0.53756    0.08273    1.000
    Si4679   Si       0.80092    0.65625    0.03987    1.000
    Si4680   Si       0.78224    0.71797    0.06384    1.000
    N4681    N        0.77485    0.67302    0.00693    1.000
    N4682    N        0.80003    0.73339    0.02822    1.000
    N4683    N        0.78238    0.74518    0.09756    1.000
    N4684    N        0.80806    0.68404    0.07245    1.000
    N4685    N        0.79634    0.52470    0.16349    1.000
    Si4686   Si       0.77924    0.56068    0.14864    1.000
    Si4687   Si       0.78904    0.59967    0.21470    1.000
    N4688    N        0.80158    0.59026    0.17340    1.000
    N4689    N        0.76800    0.63720    0.20179    1.000
    Si4690   Si       0.76579    0.67452    0.18029    1.000
    N4691    N        0.78059    0.69699    0.22238    1.000
    N4692    N        0.79268    0.69335    0.15238    1.000
    N4693    N        0.77655    0.75230    0.17825    1.000
    Si4694   Si       0.78989    0.66040    0.24691    1.000
    Si4695   Si       0.75559    0.72973    0.20853    1.000
    N4696    N        0.76754    0.52881    0.27195    1.000
    Si4697   Si       0.76805    0.61055    0.30446    1.000
    Si4698   Si       0.80379    0.55198    0.27632    1.000
    N4699    N        0.80392    0.58848    0.29984    1.000
    N4700    N        0.75869    0.63474    0.26824    1.000
    N4701    N        0.76950    0.63976    0.33721    1.000
    Si4702   Si       0.77229    0.67896    0.31232    1.000
    N4703    N        0.78434    0.70955    0.33994    1.000
    Si4704   Si       0.76864    0.75044    0.33204    1.000
    Si4705   Si       0.80402    0.64059    0.36316    1.000
    N4706    N        0.77247    0.75421    0.28885    1.000
    N4707    N        0.80732    0.67645    0.28479    1.000
    N4708    N        0.77572    0.73769    0.40072    1.000
    N4709    N        0.80652    0.60329    0.38487    1.000
    Si4710   Si       0.79395    0.58426    0.42330    1.000
    N4711    N        0.76787    0.55282    0.40827    1.000
    N4712    N        0.75739    0.60644    0.43461    1.000
    Si4713   Si       0.78096    0.75191    0.44208    1.000
    N4714    N        0.79034    0.72469    0.47453    1.000
    Si4715   Si       0.76241    0.69909    0.49395    1.000
    Si4716   Si       0.80493    0.71449    0.37997    1.000
    N4717    N        0.81516    0.67379    0.38809    1.000
    N4718    N        0.76292    0.58576    0.61280    1.000
    Si4719   Si       0.76344    0.51551    0.52429    1.000
    N4720    N        0.79149    0.62415    0.56857    1.000
    N4721    N        0.78238    0.61900    0.49802    1.000
    N4722    N        0.75460    0.53255    0.56430    1.000
    N4723    N        0.80241    0.50915    0.51220    1.000
    N4724    N        0.79995    0.52497    0.62047    1.000
    Si4725   Si       0.77365    0.62798    0.60892    1.000
    Si4726   Si       0.77550    0.74819    0.55311    1.000
    Si4727   Si       0.77148    0.64347    0.53614    1.000
    N4728    N        0.78926    0.68082    0.52300    1.000
    Si4729   Si       0.75650    0.70768    0.61696    1.000
    N4730    N        0.80030    0.58086    0.67044    1.000
    Si4731   Si       0.79760    0.56710    0.62821    1.000
    Si4732   Si       0.76353    0.57360    0.69101    1.000
    Si4733   Si       0.79244    0.73930    0.65746    1.000
    N4734    N        0.80066    0.71079    0.62511    1.000
    N4735    N        0.80788    0.63763    0.63214    1.000
    N4736    N        0.80589    0.65362    0.69790    1.000
    Si4737   Si       0.76444    0.65281    0.71004    1.000
    N4738    N        0.80801    0.72703    0.69497    1.000
    Si4739   Si       0.76909    0.50537    0.59550    1.000
    Si4740   Si       0.78354    0.54844    0.75935    1.000
    N4741    N        0.79064    0.58502    0.83365    1.000
    N4742    N        0.78811    0.59113    0.76789    1.000
    N4743    N        0.75344    0.52173    0.78116    1.000
    Si4744   Si       0.75711    0.61837    0.83975    1.000
    Si4745   Si       0.79220    0.71096    0.99102    1.000
    Si4746   Si       0.79717    0.73033    0.79621    1.000
    N4747    N        0.79174    0.64415    0.81593    1.000
    Si4748   Si       0.76052    0.66630    0.79161    1.000
    N4749    N        0.75802    0.70962    0.79307    1.000
    N4750    N        0.75877    0.64973    0.75251    1.000
    N4751    N        0.79247    0.75183    0.83520    1.000
    N4752    N        0.79687    0.75460    0.75946    1.000
    Si4753   Si       0.80796    0.57527    0.87191    1.000
    N4754    N        0.77823    0.56196    0.90016    1.000
    Si4755   Si       0.78275    0.56505    0.94442    1.000
    N4756    N        0.80162    0.53540    0.96712    1.000
    N4757    N        0.79938    0.60270    0.95792    1.000
    Si4758   Si       0.78280    0.69950    0.92246    1.000
    Si4759   Si       0.76768    0.63872    0.97146    1.000
    N4760    N        0.79230    0.66116    0.93997    1.000
    N4761    N        0.76546    0.72246    0.95697    1.000
    N4762    N        0.78083    0.84336    0.01420    1.000
    Si4763   Si       0.80150    0.85085    0.08124    1.000
    N4764    N        0.75810    0.83462    0.07705    1.000
    Si4765   Si       0.80656    0.87656    0.02573    1.000
    N4766    N        0.78318    0.89115    0.05875    1.000
    Si4767   Si       0.76465    0.97331    0.08691    1.000
    N4768    N        0.79970    0.95208    0.09939    1.000
    N4769    N        0.78749    0.97515    0.00380    1.000
    N4770    N        0.76953    0.00878    0.06157    1.000
    Si4771   Si       0.75134    0.98538    0.02789    1.000
    Si4772   Si       0.80849    0.91520    0.11943    1.000
    Si4773   Si       0.76892    0.79517    0.17304    1.000
    N4774    N        0.80452    0.79478    0.23409    1.000
    N4775    N        0.80691    0.81629    0.17125    1.000
    Si4776   Si       0.78142    0.91585    0.18990    1.000
    N4777    N        0.77667    0.95260    0.21039    1.000
    Si4778   Si       0.80543    0.98473    0.20518    1.000
    N4779    N        0.77362    0.91787    0.14712    1.000
    N4780    N        0.75006    0.79500    0.13439    1.000
    Si4781   Si       0.78427    0.82681    0.26052    1.000
    N4782    N        0.79715    0.77327    0.35265    1.000
    N4783    N        0.79820    0.86792    0.25549    1.000
    N4784    N        0.75607    0.87045    0.31238    1.000
    Si4785   Si       0.80818    0.77063    0.27293    1.000
    Si4786   Si       0.78768    0.89264    0.29107    1.000
    Si4787   Si       0.77624    0.96473    0.25434    1.000
    N4788    N        0.77935    0.93580    0.28427    1.000
    Si4789   Si       0.77405    0.95589    0.32470    1.000
    N4790    N        0.77123    0.00023    0.31633    1.000
    N4791    N        0.75761    0.99377    0.42764    1.000
    Si4792   Si       0.75798    0.82755    0.47281    1.000
    N4793    N        0.77642    0.82239    0.39493    1.000
    N4794    N        0.80160    0.83575    0.47872    1.000
    Si4795   Si       0.79150    0.78272    0.39332    1.000
    Si4796   Si       0.80858    0.84931    0.38626    1.000
    Si4797   Si       0.78328    0.95680    0.43612    1.000
    N4798    N        0.79131    0.88590    0.37372    1.000
    N4799    N        0.79075    0.95291    0.47805    1.000
    N4800    N        0.80665    0.80876    0.29601    1.000
    N4801    N        0.81224    0.95187    0.34508    1.000
    N4802    N        0.81104    0.99109    0.24985    1.000
    Si4803   Si       0.75140    0.88869    0.35321    1.000
    N4804    N        0.79009    0.78447    0.57604    1.000
    N4805    N        0.79674    0.84242    0.54396    1.000
    N4806    N        0.76481    0.87830    0.59474    1.000
    Si4807   Si       0.80150    0.86279    0.57919    1.000
    Si4808   Si       0.76284    0.81153    0.54536    1.000
    N4809    N        0.76894    0.99694    0.56719    1.000
    N4810    N        0.77721    0.91639    0.53926    1.000
    Si4811   Si       0.76655    0.97054    0.60098    1.000
    Si4812   Si       0.76204    0.93158    0.50064    1.000
    N4813    N        0.80293    0.94613    0.60125    1.000
    N4814    N        0.78386    0.93556    0.70372    1.000
    Si4815   Si       0.79201    0.81343    0.67130    1.000
    N4816    N        0.78489    0.79754    0.71230    1.000
    N4817    N        0.78470    0.86621    0.71046    1.000
    Si4818   Si       0.76745    0.83398    0.72879    1.000
    N4819    N        0.80745    0.77850    0.64857    1.000
    N4820    N        0.75531    0.82833    0.65139    1.000
    N4821    N        0.80295    0.89797    0.65257    1.000
    N4822    N        0.76050    0.99427    0.63636    1.000
    Si4823   Si       0.77191    0.89869    0.68356    1.000
    Si4824   Si       0.79636    0.85742    0.78189    1.000
    N4825    N        0.80111    0.85815    0.82674    1.000
    N4826    N        0.76768    0.82516    0.77051    1.000
    Si4827   Si       0.76597    0.84563    0.85086    1.000
    Si4828   Si       0.76044    0.77804    0.75173    1.000
    Si4829   Si       0.75911    0.76791    0.85638    1.000
    N4830    N        0.76820    0.96222    0.76516    1.000
    N4831    N        0.77498    0.89658    0.78180    1.000
    Si4832   Si       0.79597    0.93391    0.78409    1.000
    Si4833   Si       0.78458    0.80449    0.90635    1.000
    Si4834   Si       0.79198    0.83016    0.97516    1.000
    N4835    N        0.78094    0.79827    0.94893    1.000
    N4836    N        0.77110    0.84243    0.89392    1.000
    N4837    N        0.80324    0.86577    0.94968    1.000
    N4838    N        0.75921    0.76763    0.89940    1.000
    Si4839   Si       0.78934    0.87892    0.91143    1.000
    N4840    N        0.79088    0.96643    0.88731    1.000
    N4841    N        0.76285    0.91245    0.92247    1.000
    N4842    N        0.75718    0.98444    0.94065    1.000
    Si4843   Si       0.78240    0.95111    0.92673    1.000
    Si4844   Si       0.78238    0.00665    0.87096    1.000
    N4845    N        0.81069    0.99825    0.83889    1.000
    N4846    N        0.84471    0.10794    0.05563    1.000
    Si4847   Si       0.84190    0.08862    0.09532    1.000
    Si4848   Si       0.82175    0.08460    0.02751    1.000
    N4849    N        0.81915    0.04193    0.02892    1.000
    N4850    N        0.86994    0.05529    0.08777    1.000
    N4851    N        0.85714    0.21632    0.05175    1.000
    N4852    N        0.82818    0.17386    0.10238    1.000
    Si4853   Si       0.85591    0.20532    0.09368    1.000
    Si4854   Si       0.82197    0.22214    0.02309    1.000
    N4855    N        0.83363    0.23885    0.11218    1.000
    N4856    N        0.85061    0.11281    0.12910    1.000
    N4857    N        0.85776    0.03910    0.18119    1.000
    Si4858   Si       0.81688    0.05365    0.19006    1.000
    Si4859   Si       0.84090    0.19210    0.24335    1.000
    N4860    N        0.85548    0.21866    0.21064    1.000
    Si4861   Si       0.83830    0.25357    0.18816    1.000
    N4862    N        0.86844    0.16055    0.16421    1.000
    Si4863   Si       0.83345    0.15268    0.13891    1.000
    Si4864   Si       0.82741    0.08003    0.26501    1.000
    N4865    N        0.86403    0.10189    0.26749    1.000
    N4866    N        0.85576    0.12351    0.33893    1.000
    Si4867   Si       0.84119    0.01137    0.27359    1.000
    N4868    N        0.82039    0.04453    0.29028    1.000
    N4869    N        0.81886    0.02353    0.36264    1.000
    N4870    N        0.84386    0.21449    0.28004    1.000
    Si4871   Si       0.82147    0.24319    0.30668    1.000
    Si4872   Si       0.82846    0.11879    0.37197    1.000
    N4873    N        0.83687    0.08665    0.39999    1.000
    N4874    N        0.83229    0.02510    0.43560    1.000
    Si4875   Si       0.84860    0.10929    0.43473    1.000
    N4876    N        0.82809    0.08652    0.47198    1.000
    Si4877   Si       0.81904    0.04653    0.39892    1.000
    Si4878   Si       0.81484    0.04421    0.47150    1.000
    N4879    N        0.85509    0.14426    0.40105    1.000
    N4880    N        0.83069    0.24556    0.37347    1.000
    N4881    N        0.84572    0.21003    0.44603    1.000
    Si4882   Si       0.83164    0.17413    0.42311    1.000
    Si4883   Si       0.82068    0.24587    0.45672    1.000
    Si4884   Si       0.85520    0.02318    0.53399    1.000
    N4885    N        0.83819    0.01975    0.57310    1.000
    Si4886   Si       0.85948    0.02452    0.61197    1.000
    N4887    N        0.82524    0.01567    0.50246    1.000
    N4888    N        0.85870    0.13016    0.60962    1.000
    Si4889   Si       0.85559    0.11269    0.50254    1.000
    N4890    N        0.81680    0.13366    0.51276    1.000
    N4891    N        0.83049    0.17249    0.57065    1.000
    Si4892   Si       0.81326    0.19180    0.60574    1.000
    Si4893   Si       0.86878    0.14992    0.57335    1.000
    Si4894   Si       0.81621    0.12282    0.62213    1.000
    Si4895   Si       0.82767    0.01785    0.73773    1.000
    N4896    N        0.84255    0.04852    0.71131    1.000
    N4897    N        0.82771    0.09328    0.65329    1.000
    N4898    N        0.83197    0.01316    0.64227    1.000
    Si4899   Si       0.81627    0.07365    0.68921    1.000
    Si4900   Si       0.86899    0.10106    0.63904    1.000
    Si4901   Si       0.83921    0.23183    0.73409    1.000
    Si4902   Si       0.84441    0.13208    0.72656    1.000
    Si4903   Si       0.84163    0.23780    0.66067    1.000
    N4904    N        0.84680    0.21092    0.62407    1.000
    N4905    N        0.84728    0.21131    0.69522    1.000
    N4906    N        0.87228    0.13521    0.69366    1.000
    Si4907   Si       0.83725    0.01939    0.81245    1.000
    N4908    N        0.86189    0.10038    0.82529    1.000
    Si4909   Si       0.82010    0.08896    0.82726    1.000
    N4910    N        0.87133    0.02822    0.83908    1.000
    Si4911   Si       0.85208    0.13107    0.79521    1.000
    N4912    N        0.84780    0.17317    0.80547    1.000
    Si4913   Si       0.85301    0.19889    0.83976    1.000
    N4914    N        0.86467    0.24086    0.83056    1.000
    Si4915   Si       0.82328    0.25174    0.84520    1.000
    N4916    N        0.81865    0.25502    0.88621    1.000
    N4917    N        0.82557    0.08284    0.92631    1.000
    Si4918   Si       0.83349    0.10961    0.95823    1.000
    N4919    N        0.82893    0.02223    0.96319    1.000
    Si4920   Si       0.83322    0.04019    0.92397    1.000
    N4921    N        0.84951    0.09235    0.99430    1.000
    Si4922   Si       0.83697    0.22328    0.90772    1.000
    N4923    N        0.85870    0.19581    0.88351    1.000
    N4924    N        0.85876    0.14335    0.94443    1.000
    Si4925   Si       0.82723    0.17258    0.95975    1.000
    N4926    N        0.85747    0.24192    0.94223    1.000
    N4927    N        0.87287    0.03039    0.90732    1.000
    N4928    N        0.83841    0.19412    0.99526    1.000
    N4929    N        0.84828    0.30769    0.09704    1.000
    N4930    N        0.84440    0.32821    0.03245    1.000
    Si4931   Si       0.86192    0.33781    0.06926    1.000
    Si4932   Si       0.82258    0.35451    0.00723    1.000
    Si4933   Si       0.85805    0.29203    0.01226    1.000
    Si4934   Si       0.86001    0.27274    0.11907    1.000
    Si4935   Si       0.81441    0.32314    0.11916    1.000
    N4936    N        0.85476    0.38039    0.07528    1.000
    N4937    N        0.82944    0.26071    0.00506    1.000
    N4938    N        0.84378    0.47510    0.05842    1.000
    Si4939   Si       0.85982    0.47123    0.01859    1.000
    Si4940   Si       0.86402    0.49387    0.09135    1.000
    N4941    N        0.84069    0.43999    0.99761    1.000
    N4942    N        0.82857    0.36435    0.21335    1.000
    N4943    N        0.83317    0.33934    0.15552    1.000
    Si4944   Si       0.86224    0.37242    0.16067    1.000
    N4945    N        0.86717    0.27069    0.16166    1.000
    N4946    N        0.81863    0.28816    0.20830    1.000
    N4947    N        0.84308    0.43211    0.23033    1.000
    Si4948   Si       0.82211    0.40721    0.20209    1.000
    N4949    N        0.84534    0.41169    0.16582    1.000
    Si4950   Si       0.86684    0.44731    0.15449    1.000
    N4951    N        0.84849    0.47714    0.12983    1.000
    Si4952   Si       0.81346    0.32980    0.19277    1.000
    N4953    N        0.85239    0.31720    0.26304    1.000
    Si4954   Si       0.84020    0.35885    0.25473    1.000
    N4955    N        0.86239    0.26349    0.31570    1.000
    Si4956   Si       0.81631    0.29743    0.25239    1.000
    N4957    N        0.81504    0.42913    0.34262    1.000
    N4958    N        0.86314    0.42210    0.29690    1.000
    Si4959   Si       0.82110    0.41790    0.30161    1.000
    Si4960   Si       0.83032    0.46928    0.24979    1.000
    Si4961   Si       0.84987    0.41977    0.36752    1.000
    N4962    N        0.85955    0.50193    0.35712    1.000
    N4963    N        0.81508    0.39671    0.44268    1.000
    N4964    N        0.82116    0.32978    0.47860    1.000
    Si4965   Si       0.82608    0.32184    0.43616    1.000
    Si4966   Si       0.83118    0.37242    0.47658    1.000
    N4967    N        0.82907    0.27916    0.43072    1.000
    Si4968   Si       0.85677    0.26763    0.39890    1.000
    N4969    N        0.86650    0.34272    0.43063    1.000
    N4970    N        0.86955    0.30175    0.37627    1.000
    N4971    N        0.84192    0.37807    0.37984    1.000
    Si4972   Si       0.87033    0.34567    0.38739    1.000
    Si4973   Si       0.82968    0.48515    0.48070    1.000
    Si4974   Si       0.83532    0.49549    0.39426    1.000
    N4975    N        0.83842    0.49634    0.43813    1.000
    N4976    N        0.85582    0.45291    0.39336    1.000
    N4977    N        0.81218    0.37783    0.28555    1.000
    N4978    N        0.85266    0.31196    0.54112    1.000
    Si4979   Si       0.84778    0.30151    0.50057    1.000
    N4980    N        0.81875    0.30557    0.60813    1.000
    Si4981   Si       0.81644    0.31388    0.56552    1.000
    N4982    N        0.82660    0.26396    0.49522    1.000
    N4983    N        0.81907    0.41696    0.57594    1.000
    Si4984   Si       0.86282    0.42194    0.58181    1.000
    N4985    N        0.85366    0.45313    0.49917    1.000
    N4986    N        0.86295    0.41183    0.62560    1.000
    Si4987   Si       0.85903    0.46532    0.63299    1.000
    N4988    N        0.85784    0.34467    0.65278    1.000
    Si4989   Si       0.82292    0.34595    0.68172    1.000
    N4990    N        0.83238    0.27402    0.71941    1.000
    N4991    N        0.84145    0.34548    0.72131    1.000
    Si4992   Si       0.85771    0.30756    0.63032    1.000
    N4993    N        0.86941    0.27147    0.65222    1.000
    Si4994   Si       0.83720    0.30892    0.74483    1.000
    N4995    N        0.80907    0.40233    0.74554    1.000
    N4996    N        0.84667    0.36498    0.79057    1.000
    N4997    N        0.86208    0.32261    0.84703    1.000
    Si4998   Si       0.81928    0.32272    0.85186    1.000
    N4999    N        0.86310    0.30087    0.77753    1.000
    Si5000   Si       0.84814    0.37974    0.74990    1.000
    Si5001   Si       0.82309    0.38322    0.82284    1.000
    Si5002   Si       0.84146    0.50116    0.77393    1.000
    N5003    N        0.84925    0.45863    0.76735    1.000
    N5004    N        0.83777    0.38876    0.86280    1.000
    Si5005   Si       0.83450    0.50140    0.85006    1.000
    N5006    N        0.81705    0.49731    0.80980    1.000
    Si5007   Si       0.81188    0.43484    0.77332    1.000
    Si5008   Si       0.85496    0.41478    0.96454    1.000
    N5009    N        0.85570    0.30719    0.97013    1.000
    N5010    N        0.85062    0.37374    0.97764    1.000
    Si5011   Si       0.82947    0.27122    0.96349    1.000
    N5012    N        0.86133    0.35196    0.91327    1.000
    N5013    N        0.81965    0.46546    0.87052    1.000
    Si5014   Si       0.84527    0.45519    0.90384    1.000
    N5015    N        0.85803    0.49127    0.92991    1.000
    Si5016   Si       0.82653    0.49907    0.95987    1.000
    Si5017   Si       0.83022    0.38291    0.90484    1.000
    N5018    N        0.83223    0.42234    0.92859    1.000
    N5019    N        0.80658    0.42206    0.81388    1.000
    N5020    N        0.84529    0.59763    0.07162    1.000
    N5021    N        0.84792    0.53433    0.08868    1.000
    N5022    N        0.85025    0.57076    0.00951    1.000
    Si5023   Si       0.85934    0.60908    0.03221    1.000
    Si5024   Si       0.81771    0.54274    0.00700    1.000
    Si5025   Si       0.86761    0.57132    0.09964    1.000
    N5026    N        0.85458    0.69552    0.12786    1.000
    N5027    N        0.85118    0.74732    0.08132    1.000
    Si5028   Si       0.84225    0.73501    0.03985    1.000
    N5029    N        0.83609    0.64456    0.01950    1.000
    Si5030   Si       0.81624    0.67809    0.11701    1.000
    Si5031   Si       0.85831    0.67597    0.00051    1.000
    Si5032   Si       0.84914    0.59494    0.24181    1.000
    Si5033   Si       0.83315    0.61089    0.15183    1.000
    N5034    N        0.85782    0.52318    0.19451    1.000
    N5035    N        0.86290    0.58164    0.14104    1.000
    N5036    N        0.81813    0.62683    0.23587    1.000
    Si5037   Si       0.81516    0.53122    0.20407    1.000
    N5038    N        0.81330    0.56372    0.23407    1.000
    N5039    N        0.81703    0.63543    0.11979    1.000
    Si5040   Si       0.86635    0.68401    0.16824    1.000
    N5041    N        0.84644    0.71479    0.19078    1.000
    Si5042   Si       0.85750    0.73798    0.22466    1.000
    N5043    N        0.85341    0.64241    0.17562    1.000
    Si5044   Si       0.81224    0.72925    0.16541    1.000
    N5045    N        0.84932    0.50909    0.99940    1.000
    Si5046   Si       0.84466    0.60350    0.31215    1.000
    N5047    N        0.83472    0.52719    0.29339    1.000
    N5048    N        0.85834    0.57450    0.34155    1.000
    Si5049   Si       0.86320    0.53309    0.32600    1.000
    N5050    N        0.86956    0.60662    0.39583    1.000
    N5051    N        0.83823    0.64171    0.33440    1.000
    Si5052   Si       0.84475    0.67601    0.30497    1.000
    N5053    N        0.86168    0.70847    0.33252    1.000
    N5054    N        0.84474    0.75011    0.26559    1.000
    Si5055   Si       0.86823    0.74072    0.36181    1.000
    Si5056   Si       0.84155    0.57934    0.38023    1.000
    N5057    N        0.83711    0.54240    0.40092    1.000
    Si5058   Si       0.84816    0.54035    0.44385    1.000
    Si5059   Si       0.81915    0.59754    0.49404    1.000
    N5060    N        0.85704    0.52577    0.48803    1.000
    N5061    N        0.85571    0.62099    0.48995    1.000
    N5062    N        0.81984    0.57560    0.45543    1.000
    Si5063   Si       0.86412    0.66159    0.47984    1.000
    N5064    N        0.83868    0.68312    0.45192    1.000
    Si5065   Si       0.85071    0.68684    0.41166    1.000
    N5066    N        0.84437    0.72852    0.39774    1.000
    N5067    N        0.85985    0.74638    0.46910    1.000
    Si5068   Si       0.83364    0.71495    0.48193    1.000
    N5069    N        0.83297    0.57308    0.60196    1.000
    Si5070   Si       0.82921    0.60012    0.56732    1.000
    Si5071   Si       0.83468    0.53443    0.52649    1.000
    N5072    N        0.84882    0.51660    0.56146    1.000
    Si5073   Si       0.84152    0.52952    0.60361    1.000
    N5074    N        0.86336    0.62274    0.55924    1.000
    N5075    N        0.82324    0.57446    0.53010    1.000
    N5076    N        0.83962    0.67850    0.58185    1.000
    N5077    N        0.85838    0.69031    0.51418    1.000
    Si5078   Si       0.82473    0.69322    0.54502    1.000
    N5079    N        0.81502    0.73632    0.54264    1.000
    N5080    N        0.86343    0.61366    0.67035    1.000
    Si5081   Si       0.82030    0.62020    0.67085    1.000
    N5082    N        0.86586    0.51209    0.63488    1.000
    Si5083   Si       0.83104    0.68940    0.69584    1.000
    N5084    N        0.85320    0.68184    0.65946    1.000
    Si5085   Si       0.82523    0.67614    0.62392    1.000
    N5086    N        0.86271    0.68602    0.72722    1.000
    N5087    N        0.81808    0.52663    0.74806    1.000
    N5088    N        0.83818    0.54384    0.86365    1.000
    N5089    N        0.84826    0.62908    0.79678    1.000
    Si5090   Si       0.85995    0.70025    0.76827    1.000
    N5091    N        0.82640    0.69881    0.79404    1.000
    Si5092   Si       0.83030    0.66412    0.81895    1.000
    N5093    N        0.84507    0.66804    0.85904    1.000
    N5094    N        0.85977    0.73941    0.86224    1.000
    N5095    N        0.81956    0.61212    0.88936    1.000
    Si5096   Si       0.81851    0.62882    0.92994    1.000
    Si5097   Si       0.85650    0.63352    0.88218    1.000
    N5098    N        0.81926    0.71743    0.91038    1.000
    N5099    N        0.83491    0.70580    0.97748    1.000
    Si5100   Si       0.84683    0.72665    0.94155    1.000
    Si5101   Si       0.85208    0.70436    0.88361    1.000
    N5102    N        0.85888    0.64349    0.92491    1.000
    Si5103   Si       0.81054    0.60768    0.80112    1.000
    N5104    N        0.83583    0.85648    0.05128    1.000
    Si5105   Si       0.81857    0.76807    0.10075    1.000
    N5106    N        0.85739    0.76703    0.01868    1.000
    N5107    N        0.81573    0.81118    0.10071    1.000
    N5108    N        0.81155    0.87070    0.11900    1.000
    Si5109   Si       0.84209    0.96630    0.10379    1.000
    N5110    N        0.82987    0.90933    0.00713    1.000
    N5111    N        0.85372    0.97564    0.00355    1.000
    N5112    N        0.83602    0.00067    0.07703    1.000
    N5113    N        0.86916    0.94379    0.07510    1.000
    N5114    N        0.85600    0.84632    0.21463    1.000
    Si5115   Si       0.82758    0.83257    0.13683    1.000
    Si5116   Si       0.83364    0.80896    0.20567    1.000
    N5117    N        0.86999    0.81960    0.14516    1.000
    N5118    N        0.86493    0.77743    0.20378    1.000
    Si5119   Si       0.83151    0.87934    0.23183    1.000
    N5120    N        0.83177    0.76082    0.14227    1.000
    Si5121   Si       0.86801    0.77887    0.15716    1.000
    Si5122   Si       0.85317    0.92945    0.17573    1.000
    N5123    N        0.84180    0.97055    0.18694    1.000
    N5124    N        0.84858    0.92738    0.13331    1.000
    Si5125   Si       0.86945    0.99804    0.16894    1.000
    N5126    N        0.82395    0.90332    0.19786    1.000
    N5127    N        0.87103    0.99194    0.12624    1.000
    N5128    N        0.83221    0.83487    0.35282    1.000
    Si5129   Si       0.82454    0.79829    0.33255    1.000
    N5130    N        0.86204    0.77417    0.33159    1.000
    N5131    N        0.86043    0.96548    0.47025    1.000
    Si5132   Si       0.86692    0.85932    0.35061    1.000
    Si5133   Si       0.86620    0.89692    0.29912    1.000
    N5134    N        0.82522    0.89332    0.31523    1.000
    Si5135   Si       0.82061    0.91144    0.35169    1.000
    Si5136   Si       0.83954    0.98457    0.35290    1.000
    N5137    N        0.86189    0.90118    0.25615    1.000
    N5138    N        0.85557    0.99890    0.31296    1.000
    N5139    N        0.85704    0.89880    0.36939    1.000
    N5140    N        0.82146    0.96254    0.41572    1.000
    Si5141   Si       0.85387    0.98665    0.43284    1.000
    Si5142   Si       0.82399    0.81828    0.44796    1.000
    N5143    N        0.83885    0.84451    0.41896    1.000
    N5144    N        0.86299    0.80995    0.46854    1.000
    N5145    N        0.81399    0.78041    0.42951    1.000
    Si5146   Si       0.85329    0.76060    0.42882    1.000
    Si5147   Si       0.82525    0.97171    0.49548    1.000
    N5148    N        0.85191    0.77797    0.59425    1.000
    N5149    N        0.84452    0.79833    0.52647    1.000
    Si5150   Si       0.82792    0.83615    0.51386    1.000
    N5151    N        0.82106    0.83854    0.61070    1.000
    Si5152   Si       0.81502    0.79519    0.60935    1.000
    Si5153   Si       0.84550    0.76540    0.55440    1.000
    N5154    N        0.87012    0.85798    0.50875    1.000
    N5155    N        0.83220    0.89358    0.57407    1.000
    N5156    N        0.83549    0.95348    0.53322    1.000
    N5157    N        0.83492    0.98361    0.71193    1.000
    Si5158   Si       0.83038    0.86490    0.64324    1.000
    N5159    N        0.85147    0.78273    0.71429    1.000
    Si5160   Si       0.83005    0.86402    0.71305    1.000
    N5161    N        0.82972    0.83825    0.67649    1.000
    Si5162   Si       0.86515    0.81355    0.68708    1.000
    Si5163   Si       0.81090    0.76316    0.72085    1.000
    Si5164   Si       0.82706    0.92763    0.63216    1.000
    Si5165   Si       0.85598    0.99227    0.67233    1.000
    N5166    N        0.85166    0.90204    0.70906    1.000
    N5167    N        0.85311    0.94719    0.66276    1.000
    Si5168   Si       0.82690    0.94111    0.71173    1.000
    N5169    N        0.86159    0.89303    0.63156    1.000
    Si5170   Si       0.81354    0.93116    0.56172    1.000
    N5171    N        0.84881    0.79328    0.82226    1.000
    Si5172   Si       0.82731    0.76920    0.84997    1.000
    N5173    N        0.83033    0.84978    0.75559    1.000
    N5174    N        0.86784    0.88343    0.84413    1.000
    Si5175   Si       0.82536    0.89073    0.84011    1.000
    N5176    N        0.82840    0.93202    0.75620    1.000
    Si5177   Si       0.82175    0.95851    0.85489    1.000
    Si5178   Si       0.86838    0.91403    0.74874    1.000
    N5179    N        0.81501    0.92992    0.82554    1.000
    N5180    N        0.84865    0.00513    0.77370    1.000
    Si5181   Si       0.85671    0.94643    0.92175    1.000
    N5182    N        0.85717    0.84020    0.91541    1.000
    Si5183   Si       0.84580    0.85687    0.95400    1.000
    N5184    N        0.83464    0.82317    0.98082    1.000
    Si5185   Si       0.85618    0.79639    0.90915    1.000
    N5186    N        0.85573    0.76887    0.94347    1.000
    Si5187   Si       0.86066    0.78899    0.98157    1.000
    N5188    N        0.82095    0.79228    0.88602    1.000
    Si5189   Si       0.86490    0.87543    0.88854    1.000
    Si5190   Si       0.82044    0.94936    0.99199    1.000
    Si5191   Si       0.86627    0.00064    0.96760    1.000
    N5192    N        0.82105    0.94770    0.94701    1.000
    N5193    N        0.82106    0.88818    0.88392    1.000
    N5194    N        0.85569    0.96557    0.88200    1.000
    N5195    N        0.90635    0.09125    0.01607    1.000
    Si5196   Si       0.90987    0.06313    0.10864    1.000
    N5197    N        0.91978    0.01983    0.10242    1.000
    Si5198   Si       0.87739    0.01452    0.08322    1.000
    Si5199   Si       0.92085    0.01360    0.01077    1.000
    Si5200   Si       0.87877    0.12189    0.03237    1.000
    N5201    N        0.87456    0.16653    0.23594    1.000
    Si5202   Si       0.92032    0.18062    0.06801    1.000
    N5203    N        0.89637    0.19227    0.10221    1.000
    N5204    N        0.89513    0.16112    0.03628    1.000
    Si5205   Si       0.87604    0.19468    0.01790    1.000
    Si5206   Si       0.92282    0.24708    0.02313    1.000
    N5207    N        0.88428    0.10667    0.19827    1.000
    N5208    N        0.90226    0.07648    0.14803    1.000
    Si5209   Si       0.89121    0.06510    0.18682    1.000
    Si5210   Si       0.89034    0.12583    0.23933    1.000
    Si5211   Si       0.88758    0.11773    0.15482    1.000
    N5212    N        0.92706    0.05503    0.21004    1.000
    Si5213   Si       0.90217    0.17613    0.14036    1.000
    Si5214   Si       0.87964    0.18712    0.19672    1.000
    N5215    N        0.92185    0.13802    0.13318    1.000
    N5216    N        0.91526    0.19577    0.17789    1.000
    N5217    N        0.89437    0.07159    0.31508    1.000
    Si5218   Si       0.88908    0.02630    0.31781    1.000
    Si5219   Si       0.91872    0.07082    0.35165    1.000
    Si5220   Si       0.88158    0.11167    0.30526    1.000
    N5221    N        0.90222    0.03209    0.35973    1.000
    N5222    N        0.87809    0.02740    0.25928    1.000
    Si5223   Si       0.92083    0.02409    0.25965    1.000
    N5224    N        0.91625    0.13650    0.30796    1.000
    N5225    N        0.91314    0.21263    0.30752    1.000
    Si5226   Si       0.88081    0.23461    0.28722    1.000
    N5227    N        0.90972    0.17521    0.36235    1.000
    N5228    N        0.91604    0.10708    0.37661    1.000
    N5229    N        0.91913    0.04133    0.47277    1.000
    Si5230   Si       0.93015    0.00693    0.44868    1.000
    Si5231   Si       0.88712    0.13999    0.36966    1.000
    N5232    N        0.90932    0.18334    0.43354    1.000
    N5233    N        0.89064    0.25290    0.41856    1.000
    Si5234   Si       0.91185    0.15053    0.45979    1.000
    Si5235   Si       0.88720    0.22074    0.44649    1.000
    N5236    N        0.90918    0.23277    0.48249    1.000
    N5237    N        0.87359    0.12982    0.46682    1.000
    Si5238   Si       0.90614    0.09053    0.54342    1.000
    N5239    N        0.88269    0.05602    0.53071    1.000
    Si5240   Si       0.91206    0.02937    0.51494    1.000
    N5241    N        0.87514    0.12234    0.54015    1.000
    N5242    N        0.87533    0.06423    0.61612    1.000
    Si5243   Si       0.91781    0.07306    0.61760    1.000
    N5244    N        0.90139    0.17516    0.58450    1.000
    N5245    N        0.90727    0.24196    0.60059    1.000
    Si5246   Si       0.88703    0.20453    0.61241    1.000
    N5247    N        0.92677    0.16547    0.49643    1.000
    N5248    N        0.92072    0.06875    0.71007    1.000
    Si5249   Si       0.92091    0.02475    0.71056    1.000
    Si5250   Si       0.90745    0.10618    0.69386    1.000
    N5251    N        0.91138    0.10218    0.65005    1.000
    Si5252   Si       0.87750    0.18001    0.68649    1.000
    N5253    N        0.89668    0.00759    0.67839    1.000
    N5254    N        0.90362    0.18868    0.72120    1.000
    N5255    N        0.90098    0.19404    0.65306    1.000
    Si5256   Si       0.92538    0.00734    0.64629    1.000
    N5257    N        0.91614    0.07093    0.79517    1.000
    Si5258   Si       0.88995    0.06898    0.83126    1.000
    N5259    N        0.91094    0.01109    0.75056    1.000
    N5260    N        0.91080    0.07684    0.86809    1.000
    N5261    N        0.87347    0.13221    0.75948    1.000
    N5262    N        0.87551    0.23422    0.76081    1.000
    Si5263   Si       0.90683    0.23830    0.84275    1.000
    N5264    N        0.90655    0.19298    0.84560    1.000
    Si5265   Si       0.91435    0.21362    0.75414    1.000
    N5266    N        0.92222    0.17656    0.77841    1.000
    Si5267   Si       0.90814    0.15181    0.74459    1.000
    N5268    N        0.89637    0.08430    0.94120    1.000
    Si5269   Si       0.88662    0.07292    0.98108    1.000
    Si5270   Si       0.90643    0.05622    0.90836    1.000
    N5271    N        0.89494    0.03048    0.98159    1.000
    Si5272   Si       0.89981    0.12809    0.93662    1.000
    N5273    N        0.90747    0.13819    0.89419    1.000
    Si5274   Si       0.89663    0.22659    0.95172    1.000
    N5275    N        0.90191    0.22023    0.99574    1.000
    Si5276   Si       0.89799    0.17896    0.88820    1.000
    N5277    N        0.90771    0.19298    0.92781    1.000
    N5278    N        0.90463    0.34321    0.06970    1.000
    N5279    N        0.89731    0.28270    0.02658    1.000
    Si5280   Si       0.92299    0.31368    0.04707    1.000
    N5281    N        0.90237    0.26625    0.11290    1.000
    Si5282   Si       0.89752    0.38224    0.08861    1.000
    N5283    N        0.90706    0.48407    0.08551    1.000
    N5284    N        0.90298    0.46763    0.01740    1.000
    Si5285   Si       0.92085    0.49580    0.04594    1.000
    N5286    N        0.92402    0.41333    0.07621    1.000
    Si5287   Si       0.92780    0.44792    0.10115    1.000
    Si5288   Si       0.92083    0.35172    0.15163    1.000
    Si5289   Si       0.91055    0.27380    0.15496    1.000
    N5290    N        0.89031    0.36712    0.12719    1.000
    Si5291   Si       0.90836    0.36027    0.22864    1.000
    N5292    N        0.89805    0.36476    0.18678    1.000
    N5293    N        0.88803    0.46141    0.18839    1.000
    Si5294   Si       0.92578    0.44824    0.17203    1.000
    N5295    N        0.90674    0.43759    0.13502    1.000
    Si5296   Si       0.88395    0.49463    0.21439    1.000
    N5297    N        0.90298    0.31653    0.31259    1.000
    Si5298   Si       0.89230    0.30357    0.27267    1.000
    Si5299   Si       0.88954    0.28613    0.34164    1.000
    Si5300   Si       0.92832    0.34736    0.33134    1.000
    N5301    N        0.92255    0.26194    0.35553    1.000
    N5302    N        0.90293    0.26171    0.26172    1.000
    N5303    N        0.90858    0.35785    0.37133    1.000
    N5304    N        0.87810    0.37876    0.25171    1.000
    N5305    N        0.92335    0.38351    0.30921    1.000
    N5306    N        0.89264    0.42263    0.35608    1.000
    Si5307   Si       0.90347    0.42070    0.31426    1.000
    Si5308   Si       0.90713    0.47812    0.27872    1.000
    N5309    N        0.90433    0.46968    0.32037    1.000
    N5310    N        0.91674    0.43594    0.26260    1.000
    Si5311   Si       0.87522    0.42221    0.25578    1.000
    Si5312   Si       0.88819    0.46741    0.36455    1.000
    Si5313   Si       0.89323    0.34598    0.46506    1.000
    N5314    N        0.88676    0.30538    0.48342    1.000
    Si5315   Si       0.91539    0.27505    0.49534    1.000
    N5316    N        0.87290    0.37933    0.48588    1.000
    N5317    N        0.91921    0.32327    0.24495    1.000
    Si5318   Si       0.92353    0.39862    0.37776    1.000
    N5319    N        0.91927    0.41101    0.41648    1.000
    N5320    N        0.91721    0.42874    0.48959    1.000
    N5321    N        0.87256    0.48247    0.25570    1.000
    Si5322   Si       0.93000    0.47219    0.49243    1.000
    Si5323   Si       0.89319    0.30936    0.55553    1.000
    N5324    N        0.88733    0.30969    0.59914    1.000
    N5325    N        0.91153    0.27597    0.53841    1.000
    N5326    N        0.91932    0.34668    0.55951    1.000
    Si5327   Si       0.92724    0.33513    0.60324    1.000
    N5328    N        0.91730    0.37402    0.62139    1.000
    Si5329   Si       0.92663    0.38797    0.54672    1.000
    Si5330   Si       0.88599    0.49438    0.56189    1.000
    N5331    N        0.88525    0.40492    0.54732    1.000
    N5332    N        0.91446    0.47475    0.53567    1.000
    Si5333   Si       0.87909    0.41885    0.50639    1.000
    Si5334   Si       0.90818    0.27167    0.63208    1.000
    Si5335   Si       0.88184    0.37962    0.64622    1.000
    N5336    N        0.91215    0.49796    0.71261    1.000
    N5337    N        0.87586    0.46474    0.67245    1.000
    N5338    N        0.89543    0.39626    0.68326    1.000
    N5339    N        0.87369    0.46265    0.59138    1.000
    Si5340   Si       0.90855    0.43751    0.67671    1.000
    Si5341   Si       0.91444    0.39691    0.72154    1.000
    N5342    N        0.91585    0.33847    0.80205    1.000
    N5343    N        0.90639    0.37172    0.86141    1.000
    N5344    N        0.91739    0.26888    0.81236    1.000
    Si5345   Si       0.87736    0.26267    0.79326    1.000
    Si5346   Si       0.87390    0.33247    0.80486    1.000
    Si5347   Si       0.87846    0.40508    0.85786    1.000
    N5348    N        0.88681    0.42875    0.82239    1.000
    Si5349   Si       0.88659    0.44008    0.77827    1.000
    Si5350   Si       0.89882    0.46154    0.84977    1.000
    N5351    N        0.87704    0.49838    0.85157    1.000
    N5352    N        0.88426    0.40264    0.75341    1.000
    N5353    N        0.92258    0.46534    0.77528    1.000
    Si5354   Si       0.88779    0.33769    0.88102    1.000
    N5355    N        0.91558    0.31114    0.90095    1.000
    N5356    N        0.91562    0.34846    0.95501    1.000
    N5357    N        0.88534    0.44047    0.88589    1.000
    Si5358   Si       0.92168    0.43741    0.99151    1.000
    N5359    N        0.92635    0.48481    0.92705    1.000
    Si5360   Si       0.91331    0.44338    0.91872    1.000
    N5361    N        0.89527    0.42984    0.95591    1.000
    Si5362   Si       0.87193    0.34550    0.95322    1.000
    N5363    N        0.91077    0.57924    0.09444    1.000
    N5364    N        0.90340    0.61184    0.03192    1.000
    N5365    N        0.90900    0.53854    0.03853    1.000
    Si5366   Si       0.87987    0.53991    0.00611    1.000
    Si5367   Si       0.92362    0.58005    0.05306    1.000
    N5368    N        0.91145    0.70930    0.08625    1.000
    Si5369   Si       0.91074    0.71370    0.04308    1.000
    Si5370   Si       0.87910    0.72848    0.10917    1.000
    N5371    N        0.92201    0.74962    0.02463    1.000
    N5372    N        0.89432    0.71712    0.23340    1.000
    N5373    N        0.90629    0.64209    0.23104    1.000
    N5374    N        0.91611    0.54620    0.15812    1.000
    N5375    N        0.92302    0.61293    0.16558    1.000
    Si5376   Si       0.89086    0.62581    0.19269    1.000
    Si5377   Si       0.87743    0.55688    0.17651    1.000
    N5378    N        0.87582    0.58806    0.20788    1.000
    Si5379   Si       0.92853    0.57968    0.13420    1.000
    N5380    N        0.90853    0.67615    0.17767    1.000
    Si5381   Si       0.91853    0.68219    0.22079    1.000
    N5382    N        0.89751    0.75307    0.13963    1.000
    N5383    N        0.87001    0.70193    0.03260    1.000
    N5384    N        0.92316    0.51077    0.21955    1.000
    Si5385   Si       0.91007    0.58059    0.33767    1.000
    N5386    N        0.90271    0.54317    0.31111    1.000
    N5387    N        0.90661    0.62380    0.34028    1.000
    Si5388   Si       0.90379    0.63626    0.27307    1.000
    Si5389   Si       0.87644    0.63819    0.36525    1.000
    Si5390   Si       0.89995    0.70240    0.31564    1.000
    N5391    N        0.91481    0.73995    0.29850    1.000
    N5392    N        0.88592    0.67050    0.29008    1.000
    N5393    N        0.91011    0.73891    0.37544    1.000
    Si5394   Si       0.90507    0.58765    0.41414    1.000
    N5395    N        0.89051    0.56041    0.44495    1.000
    Si5396   Si       0.89721    0.54318    0.48474    1.000
    N5397    N        0.92556    0.56953    0.37806    1.000
    N5398    N        0.90224    0.66717    0.46150    1.000
    Si5399   Si       0.91896    0.66040    0.42195    1.000
    N5400    N        0.88502    0.66779    0.39453    1.000
    N5401    N        0.93073    0.51718    0.49001    1.000
    Si5402   Si       0.93195    0.66525    0.49253    1.000
    N5403    N        0.86975    0.60545    0.27700    1.000
    N5404    N        0.90083    0.56915    0.51882    1.000
    N5405    N        0.91085    0.52888    0.57982    1.000
    Si5406   Si       0.88252    0.60874    0.52313    1.000
    Si5407   Si       0.91749    0.60420    0.60977    1.000
    Si5408   Si       0.88076    0.65112    0.65696    1.000
    Si5409   Si       0.92880    0.53579    0.61867    1.000
    N5410    N        0.91772    0.63389    0.51880    1.000
    N5411    N        0.90448    0.69227    0.57281    1.000
    Si5412   Si       0.89322    0.70953    0.53234    1.000
    N5413    N        0.88237    0.74952    0.53386    1.000
    Si5414   Si       0.87999    0.65794    0.57932    1.000
    N5415    N        0.89421    0.64130    0.61656    1.000
    N5416    N        0.93184    0.70309    0.51306    1.000
    Si5417   Si       0.88922    0.57865    0.67350    1.000
    Si5418   Si       0.89493    0.53186    0.73302    1.000
    N5419    N        0.90541    0.57107    0.63427    1.000
    N5420    N        0.87956    0.54445    0.69556    1.000
    N5421    N        0.92719    0.59347    0.69255    1.000
    Si5422   Si       0.92740    0.59938    0.73555    1.000
    Si5423   Si       0.90266    0.67141    0.72163    1.000
    N5424    N        0.91325    0.66162    0.68156    1.000
    N5425    N        0.91140    0.74162    0.62345    1.000
    N5426    N        0.93185    0.59371    0.57103    1.000
    Si5427   Si       0.92831    0.55504    0.54920    1.000
    N5428    N        0.93034    0.70141    0.73658    1.000
    Si5429   Si       0.89318    0.50664    0.67272    1.000
    N5430    N        0.93179    0.50413    0.64736    1.000
    N5431    N        0.90020    0.63325    0.74362    1.000
    N5432    N        0.90456    0.55842    0.83068    1.000
    Si5433   Si       0.91464    0.53975    0.79266    1.000
    Si5434   Si       0.91878    0.59823    0.84152    1.000
    N5435    N        0.88037    0.52100    0.77524    1.000
    Si5436   Si       0.88126    0.54077    0.86022    1.000
    N5437    N        0.92078    0.56074    0.75535    1.000
    N5438    N        0.92545    0.62131    0.80626    1.000
    N5439    N        0.88835    0.61175    0.86949    1.000
    Si5440   Si       0.90019    0.75484    0.86840    1.000
    Si5441   Si       0.88992    0.63773    0.78587    1.000
    Si5442   Si       0.91874    0.71328    0.77752    1.000
    N5443    N        0.88363    0.73662    0.76421    1.000
    N5444    N        0.89277    0.68192    0.79148    1.000
    N5445    N        0.90020    0.54646    0.90030    1.000
    N5446    N        0.90449    0.53658    0.96963    1.000
    Si5447   Si       0.89885    0.51557    0.93022    1.000
    N5448    N        0.91962    0.60711    0.93802    1.000
    Si5449   Si       0.92326    0.70889    0.91820    1.000
    N5450    N        0.87984    0.70841    0.91675    1.000
    N5451    N        0.89407    0.66027    0.98204    1.000
    Si5452   Si       0.89762    0.64786    0.94035    1.000
    Si5453   Si       0.92830    0.58169    0.90386    1.000
    N5454    N        0.89578    0.81166    0.06663    1.000
    N5455    N        0.88687    0.87540    0.09772    1.000
    N5456    N        0.90234    0.87100    0.02948    1.000
    Si5457   Si       0.89670    0.78477    0.03245    1.000
    Si5458   Si       0.87785    0.85131    0.06140    1.000
    Si5459   Si       0.88412    0.91655    0.10609    1.000
    N5460    N        0.89845    0.93080    0.01263    1.000
    N5461    N        0.90174    0.99596    0.04684    1.000
    Si5462   Si       0.87706    0.96101    0.03675    1.000
    Si5463   Si       0.87086    0.89588    0.00728    1.000
    Si5464   Si       0.89788    0.85045    0.13131    1.000
    Si5465   Si       0.89794    0.85512    0.20192    1.000
    Si5466   Si       0.90397    0.79075    0.22579    1.000
    N5467    N        0.90441    0.87712    0.16472    1.000
    N5468    N        0.92109    0.81735    0.19790    1.000
    N5469    N        0.92144    0.87731    0.23086    1.000
    Si5470   Si       0.91618    0.98256    0.13089    1.000
    N5471    N        0.91429    0.93624    0.13086    1.000
    Si5472   Si       0.89795    0.91266    0.23608    1.000
    N5473    N        0.91351    0.99972    0.17111    1.000
    Si5474   Si       0.92614    0.91602    0.17094    1.000
    N5475    N        0.89130    0.92946    0.19603    1.000
    N5476    N        0.88709    0.85934    0.31177    1.000
    N5477    N        0.89320    0.80042    0.26670    1.000
    Si5478   Si       0.91450    0.82818    0.29470    1.000
    Si5479   Si       0.87934    0.76694    0.29147    1.000
    N5480    N        0.89524    0.00017    0.42427    1.000
    Si5481   Si       0.91722    0.95746    0.29955    1.000
    N5482    N        0.89003    0.92964    0.31909    1.000
    Si5483   Si       0.88676    0.92841    0.36439    1.000
    N5484    N        0.91924    0.00140    0.29966    1.000
    N5485    N        0.92005    0.94119    0.26007    1.000
    N5486    N        0.87540    0.96925    0.37235    1.000
    N5487    N        0.89592    0.84253    0.37761    1.000
    N5488    N        0.87984    0.78607    0.40683    1.000
    Si5489   Si       0.90381    0.83676    0.48548    1.000
    N5490    N        0.91390    0.83914    0.44317    1.000
    Si5491   Si       0.91914    0.76905    0.40431    1.000
    Si5492   Si       0.88020    0.82838    0.41777    1.000
    N5493    N        0.91472    0.79692    0.49810    1.000
    N5494    N        0.90112    0.90989    0.44713    1.000
    Si5495   Si       0.90791    0.99723    0.38191    1.000
    Si5496   Si       0.89732    0.94296    0.47407    1.000
    N5497    N        0.92373    0.91858    0.38251    1.000
    N5498    N        0.92681    0.80036    0.32725    1.000
    Si5499   Si       0.89158    0.77947    0.61311    1.000
    N5500    N        0.91882    0.80215    0.58930    1.000
    N5501    N        0.90362    0.88187    0.56766    1.000
    Si5502   Si       0.90202    0.88536    0.52348    1.000
    N5503    N        0.91489    0.89777    0.67948    1.000
    N5504    N        0.88769    0.99401    0.52787    1.000
    Si5505   Si       0.91055    0.95994    0.60070    1.000
    N5506    N        0.89831    0.92688    0.51560    1.000
    N5507    N        0.87625    0.94269    0.58215    1.000
    N5508    N        0.89511    0.99795    0.61622    1.000
    Si5509   Si       0.87934    0.95510    0.53995    1.000
    Si5510   Si       0.88570    0.77128    0.73844    1.000
    N5511    N        0.91222    0.76061    0.70518    1.000
    N5512    N        0.88495    0.84292    0.71373    1.000
    N5513    N        0.88519    0.79450    0.65307    1.000
    Si5514   Si       0.91942    0.76271    0.66229    1.000
    Si5515   Si       0.92158    0.86475    0.70833    1.000
    Si5516   Si       0.87547    0.90934    0.67202    1.000
    Si5517   Si       0.87211    0.90032    0.59077    1.000
    N5518    N        0.92826    0.92089    0.61415    1.000
    Si5519   Si       0.87434    0.77800    0.49819    1.000
    Si5520   Si       0.88997    0.79847    0.81013    1.000
    N5521    N        0.90986    0.83630    0.81907    1.000
    N5522    N        0.88743    0.80439    0.76754    1.000
    N5523    N        0.91363    0.76918    0.82866    1.000
    Si5524   Si       0.89984    0.87939    0.81583    1.000
    Si5525   Si       0.87458    0.84302    0.75645    1.000
    N5526    N        0.88289    0.88357    0.77552    1.000
    N5527    N        0.89857    0.96620    0.81088    1.000
    Si5528   Si       0.88599    0.98034    0.77174    1.000
    Si5529   Si       0.87771    0.00301    0.87279    1.000
    N5530    N        0.89717    0.94461    0.75022    1.000
    N5531    N        0.89595    0.79093    0.89298    1.000
    N5532    N        0.91370    0.86511    0.89117    1.000
    N5533    N        0.88224    0.87356    0.97128    1.000
    Si5534   Si       0.92056    0.82335    0.90847    1.000
    Si5535   Si       0.91377    0.84713    0.99197    1.000
    N5536    N        0.89918    0.80716    0.99519    1.000
    N5537    N        0.92005    0.99185    0.87263    1.000
    N5538    N        0.88522    0.96722    0.94687    1.000
    Si5539   Si       0.91369    0.94814    0.97590    1.000
    N5540    N        0.87476    0.90757    0.91610    1.000
    Si5541   Si       0.90917    0.88385    0.93532    1.000
    Si5542   Si       0.93259    0.97855    0.83229    1.000
    N5543    N        0.97051    0.09932    0.02172    1.000
    N5544    N        0.94864    0.03757    0.03468    1.000
    Si5545   Si       0.93811    0.07792    0.04101    1.000
    Si5546   Si       0.94898    0.12394    0.10149    1.000
    N5547    N        0.93410    0.12017    0.24577    1.000
    N5548    N        0.93479    0.08797    0.08308    1.000
    N5549    N        0.98270    0.20581    0.16573    1.000
    N5550    N        0.95494    0.15578    0.07455    1.000
    Si5551   Si       0.93571    0.25247    0.09036    1.000
    N5552    N        0.93153    0.22174    0.05760    1.000
    N5553    N        0.96955    0.25617    0.11728    1.000
    N5554    N        0.98346    0.02321    0.17900    1.000
    Si5555   Si       0.94390    0.01880    0.19570    1.000
    Si5556   Si       0.95015    0.08287    0.23158    1.000
    N5557    N        0.93643    0.25663    0.18461    1.000
    Si5558   Si       0.94830    0.21587    0.19255    1.000
    N5559    N        0.95682    0.21502    0.23655    1.000
    N5560    N        0.95041    0.05576    0.26764    1.000
    N5561    N        0.95948    0.06712    0.33727    1.000
    Si5562   Si       0.97736    0.06528    0.29990    1.000
    Si5563   Si       0.95309    0.12980    0.28474    1.000
    N5564    N        0.96543    0.17108    0.28946    1.000
    N5565    N        0.96741    0.20407    0.33956    1.000
    Si5566   Si       0.94430    0.23842    0.32613    1.000
    Si5567   Si       0.98157    0.18552    0.25135    1.000
    Si5568   Si       0.93068    0.17663    0.32269    1.000
    Si5569   Si       0.94671    0.25367    0.25355    1.000
    N5570    N        0.96661    0.01636    0.42832    1.000
    Si5571   Si       0.94986    0.11477    0.40411    1.000
    Si5572   Si       0.93797    0.08152    0.47078    1.000
    N5573    N        0.97523    0.07913    0.40069    1.000
    N5574    N        0.98138    0.07180    0.47238    1.000
    N5575    N        0.93388    0.11547    0.44470    1.000
    N5576    N        0.95311    0.22823    0.40494    1.000
    Si5577   Si       0.93238    0.18897    0.39765    1.000
    Si5578   Si       0.98637    0.25368    0.48449    1.000
    N5579    N        0.98002    0.21085    0.48882    1.000
    N5580    N        0.96134    0.15628    0.39608    1.000
    N5581    N        0.95156    0.03304    0.53175    1.000
    Si5582   Si       0.96730    0.10908    0.57588    1.000
    Si5583   Si       0.98271    0.06130    0.51695    1.000
    N5584    N        0.93475    0.09826    0.51121    1.000
    Si5585   Si       0.98452    0.05416    0.62247    1.000
    N5586    N        0.92975    0.08756    0.58021    1.000
    Si5587   Si       0.95443    0.13665    0.51471    1.000
    Si5588   Si       0.93770    0.20671    0.50429    1.000
    N5589    N        0.96137    0.19543    0.61597    1.000
    N5590    N        0.95067    0.21425    0.54828    1.000
    N5591    N        0.96009    0.14699    0.55680    1.000
    Si5592   Si       0.94354    0.18213    0.57812    1.000
    Si5593   Si       0.93172    0.24946    0.56671    1.000
    Si5594   Si       0.95767    0.09086    0.73372    1.000
    N5595    N        0.96085    0.01386    0.69412    1.000
    N5596    N        0.94441    0.04272    0.63257    1.000
    N5597    N        0.93356    0.12762    0.72099    1.000
    N5598    N        0.96890    0.19413    0.68327    1.000
    Si5599   Si       0.94229    0.20918    0.65344    1.000
    N5600    N        0.93908    0.25158    0.65928    1.000
    N5601    N        0.98670    0.09883    0.61469    1.000
    N5602    N        0.97101    0.11338    0.76933    1.000
    Si5603   Si       0.94857    0.09723    0.80415    1.000
    N5604    N        0.97558    0.07292    0.82481    1.000
    N5605    N        0.96836    0.05092    0.75523    1.000
    N5606    N        0.94833    0.01404    0.81265    1.000
    Si5607   Si       0.93517    0.03685    0.77884    1.000
    Si5608   Si       0.98622    0.03076    0.82547    1.000
    N5609    N        0.93749    0.12955    0.82958    1.000
    N5610    N        0.95325    0.23342    0.75468    1.000
    N5611    N        0.97250    0.19250    0.83154    1.000
    Si5612   Si       0.93331    0.17079    0.82029    1.000
    Si5613   Si       0.96971    0.21292    0.87180    1.000
    Si5614   Si       0.93428    0.11380    0.86965    1.000
    N5615    N        0.94777    0.04295    0.91120    1.000
    N5616    N        0.97472    0.10408    0.88587    1.000
    Si5617   Si       0.97730    0.07445    0.91651    1.000
    Si5618   Si       0.96713    0.11380    0.98071    1.000
    N5619    N        0.97737    0.07761    0.96028    1.000
    N5620    N        0.93613    0.24119    0.87506    1.000
    N5621    N        0.93561    0.13743    0.95803    1.000
    N5622    N        0.96585    0.18151    0.90099    1.000
    Si5623   Si       0.94745    0.17540    0.93843    1.000
    N5624    N        0.96946    0.19950    0.96635    1.000
    Si5625   Si       0.96612    0.24292    0.96345    1.000
    N5626    N        0.93121    0.25675    0.94317    1.000
    N5627    N        0.95073    0.28820    0.06815    1.000
    N5628    N        0.94416    0.33496    0.01716    1.000
    N5629    N        0.97835    0.37195    0.07125    1.000
    Si5630   Si       0.97287    0.30170    0.00429    1.000
    N5631    N        0.96159    0.25842    0.00649    1.000
    Si5632   Si       0.98850    0.28543    0.08894    1.000
    N5633    N        0.94811    0.42398    0.19612    1.000
    N5634    N        0.96344    0.49347    0.04045    1.000
    Si5635   Si       0.95331    0.39992    0.04742    1.000
    N5636    N        0.96932    0.45813    0.10162    1.000
    N5637    N        0.98061    0.43017    0.03393    1.000
    Si5638   Si       0.96421    0.29128    0.18818    1.000
    N5639    N        0.96887    0.28388    0.23304    1.000
    N5640    N        0.95989    0.37060    0.14653    1.000
    N5641    N        0.98157    0.33481    0.20018    1.000
    Si5642   Si       0.96158    0.32826    0.24156    1.000
    N5643    N        0.94989    0.37402    0.23357    1.000
    N5644    N        0.93168    0.31056    0.15903    1.000
    Si5645   Si       0.96749    0.37971    0.19055    1.000
    N5646    N        0.95084    0.48337    0.16205    1.000
    Si5647   Si       0.94948    0.41936    0.23869    1.000
    Si5648   Si       0.98934    0.36393    0.11416    1.000
    Si5649   Si       0.98773    0.46396    0.06114    1.000
    Si5650   Si       0.98448    0.47747    0.13724    1.000
    N5651    N        0.93058    0.39823    0.01153    1.000
    N5652    N        0.96578    0.33071    0.34512    1.000
    N5653    N        0.96449    0.25838    0.29460    1.000
    Si5654   Si       0.94206    0.48451    0.33396    1.000
    N5655    N        0.94630    0.49725    0.28379    1.000
    N5656    N        0.97546    0.45713    0.32497    1.000
    Si5657   Si       0.97976    0.46828    0.27943    1.000
    N5658    N        0.98432    0.42980    0.26025    1.000
    N5659    N        0.96647    0.39907    0.36443    1.000
    Si5660   Si       0.93805    0.42367    0.45250    1.000
    Si5661   Si       0.97436    0.36593    0.47890    1.000
    N5662    N        0.95410    0.28109    0.47470    1.000
    Si5663   Si       0.95921    0.31338    0.44825    1.000
    N5664    N        0.95036    0.29957    0.40841    1.000
    Si5665   Si       0.98158    0.30941    0.38072    1.000
    N5666    N        0.93626    0.34820    0.46623    1.000
    N5667    N        0.97471    0.40459    0.45569    1.000
    Si5668   Si       0.95599    0.48437    0.41325    1.000
    N5669    N        0.94475    0.46694    0.44997    1.000
    N5670    N        0.92838    0.48074    0.37684    1.000
    Si5671   Si       0.92806    0.26293    0.39762    1.000
    N5672    N        0.97130    0.33874    0.60352    1.000
    N5673    N        0.96266    0.27631    0.58372    1.000
    N5674    N        0.96423    0.37944    0.52106    1.000
    N5675    N        0.96745    0.48130    0.58933    1.000
    N5676    N        0.97284    0.47055    0.51559    1.000
    Si5677   Si       0.95229    0.45950    0.55431    1.000
    N5678    N        0.94720    0.41874    0.57312    1.000
    Si5679   Si       0.94642    0.40399    0.61468    1.000
    N5680    N        0.93851    0.36341    0.72655    1.000
    Si5681   Si       0.97272    0.34055    0.71469    1.000
    Si5682   Si       0.96232    0.28997    0.66431    1.000
    N5683    N        0.96292    0.29764    0.70628    1.000
    Si5684   Si       0.96866    0.27108    0.73801    1.000
    N5685    N        0.93016    0.31102    0.64310    1.000
    N5686    N        0.98404    0.34960    0.67457    1.000
    N5687    N        0.98717    0.39874    0.62762    1.000
    N5688    N        0.93365    0.43796    0.64118    1.000
    Si5689   Si       0.93857    0.47138    0.73468    1.000
    N5690    N        0.97806    0.48674    0.73658    1.000
    Si5691   Si       0.95856    0.47190    0.63309    1.000
    N5692    N        0.93466    0.43417    0.71302    1.000
    N5693    N        0.96180    0.32454    0.83904    1.000
    N5694    N        0.97092    0.29480    0.77511    1.000
    Si5695   Si       0.94276    0.30332    0.80455    1.000
    Si5696   Si       0.93660    0.36196    0.83089    1.000
    N5697    N        0.96126    0.39086    0.81508    1.000
    Si5698   Si       0.95126    0.47909    0.80809    1.000
    N5699    N        0.94283    0.47037    0.84975    1.000
    N5700    N        0.95078    0.42646    0.90373    1.000
    N5701    N        0.96554    0.35456    0.90203    1.000
    N5702    N        0.97573    0.31915    0.96386    1.000
    Si5703   Si       0.94739    0.32713    0.93065    1.000
    N5704    N        0.97665    0.29036    0.89788    1.000
    Si5705   Si       0.93594    0.27369    0.90348    1.000
    Si5706   Si       0.93983    0.36626    0.98448    1.000
    Si5707   Si       0.98525    0.32671    0.87495    1.000
    N5708    N        0.98474    0.45675    0.79628    1.000
    Si5709   Si       0.97545    0.39412    0.91738    1.000
    N5710    N        0.95946    0.44675    0.97274    1.000
    N5711    N        0.97264    0.38491    0.96066    1.000
    Si5712   Si       0.97144    0.45470    0.87827    1.000
    Si5713   Si       0.96523    0.47955    0.94395    1.000
    N5714    N        0.96498    0.59574    0.05924    1.000
    Si5715   Si       0.97294    0.61809    0.09740    1.000
    N5716    N        0.96137    0.56513    0.00236    1.000
    Si5717   Si       0.97926    0.52189    0.01255    1.000
    N5718    N        0.93936    0.68262    0.03333    1.000
    Si5719   Si       0.94875    0.69427    0.10001    1.000
    N5720    N        0.94895    0.65180    0.11339    1.000
    Si5721   Si       0.98025    0.69929    0.03823    1.000
    N5722    N        0.97139    0.58452    0.12650    1.000
    Si5723   Si       0.94404    0.52186    0.18122    1.000
    N5724    N        0.97472    0.54062    0.20462    1.000
    N5725    N        0.97588    0.66124    0.18052    1.000
    Si5726   Si       0.95918    0.52049    0.24387    1.000
    Si5727   Si       0.94144    0.65084    0.15732    1.000
    N5728    N        0.95529    0.71138    0.13953    1.000
    Si5729   Si       0.94141    0.75133    0.13438    1.000
    Si5730   Si       0.92717    0.64760    0.00930    1.000
    N5731    N        0.96025    0.55620    0.26662    1.000
    N5732    N        0.96234    0.52239    0.33984    1.000
    Si5733   Si       0.96980    0.59874    0.27390    1.000
    N5734    N        0.95210    0.58407    0.32261    1.000
    Si5735   Si       0.94568    0.54050    0.30386    1.000
    N5736    N        0.94926    0.63893    0.28331    1.000
    N5737    N        0.98328    0.63878    0.34320    1.000
    Si5738   Si       0.94245    0.64415    0.32778    1.000
    Si5739   Si       0.97803    0.67461    0.27117    1.000
    N5740    N        0.96987    0.74255    0.35794    1.000
    N5741    N        0.94868    0.69818    0.25056    1.000
    N5742    N        0.93271    0.68495    0.33783    1.000
    N5743    N        0.93242    0.61977    0.42248    1.000
    N5744    N        0.97347    0.52460    0.41072    1.000
    Si5745   Si       0.96351    0.54872    0.37444    1.000
    Si5746   Si       0.97372    0.62225    0.44080    1.000
    N5747    N        0.98597    0.58529    0.45821    1.000
    Si5748   Si       0.92728    0.73298    0.25797    1.000
    N5749    N        0.96807    0.65113    0.47250    1.000
    Si5750   Si       0.94164    0.71021    0.37243    1.000
    N5751    N        0.93413    0.75287    0.44236    1.000
    N5752    N        0.95087    0.68391    0.40527    1.000
    N5753    N        0.96681    0.53576    0.54298    1.000
    N5754    N        0.97152    0.54813    0.61119    1.000
    Si5755   Si       0.95128    0.62183    0.54152    1.000
    Si5756   Si       0.98301    0.52125    0.58031    1.000
    Si5757   Si       0.96994    0.51428    0.50525    1.000
    Si5758   Si       0.97655    0.69390    0.66313    1.000
    N5759    N        0.97192    0.65242    0.56705    1.000
    N5760    N        0.96157    0.73496    0.57027    1.000
    Si5761   Si       0.96805    0.71912    0.52986    1.000
    Si5762   Si       0.97322    0.65004    0.60972    1.000
    Si5763   Si       0.93348    0.71452    0.59616    1.000
    N5764    N        0.97367    0.75487    0.50575    1.000
    Si5765   Si       0.94705    0.73582    0.71573    1.000
    N5766    N        0.95428    0.61576    0.63325    1.000
    Si5767   Si       0.94398    0.62974    0.67430    1.000
    N5768    N        0.95839    0.68800    0.62357    1.000
    N5769    N        0.95899    0.73279    0.67542    1.000
    N5770    N        0.97889    0.65399    0.67992    1.000
    N5771    N        0.98936    0.60647    0.52750    1.000
    Si5772   Si       0.98862    0.58654    0.62465    1.000
    N5773    N        0.95457    0.52200    0.80192    1.000
    Si5774   Si       0.96589    0.62107    0.79051    1.000
    N5775    N        0.96628    0.61080    0.74882    1.000
    N5776    N        0.98448    0.58852    0.81457    1.000
    N5777    N        0.95198    0.72494    0.80119    1.000
    N5778    N        0.93427    0.66574    0.92256    1.000
    N5779    N        0.95085    0.60303    0.87020    1.000
    Si5780   Si       0.94605    0.54953    0.96580    1.000
    N5781    N        0.96146    0.56239    0.92820    1.000
    N5782    N        0.97220    0.51172    0.97219    1.000
    Si5783   Si       0.95744    0.63365    0.93946    1.000
    N5784    N        0.93157    0.73005    0.88209    1.000
    Si5785   Si       0.95295    0.74615    0.99172    1.000
    N5786    N        0.96342    0.64373    0.98143    1.000
    N5787    N        0.94053    0.72871    0.95313    1.000
    Si5788   Si       0.97456    0.72863    0.86912    1.000
    N5789    N        0.98520    0.65857    0.78771    1.000
    Si5790   Si       0.98487    0.69693    0.80212    1.000
    N5791    N        0.96634    0.82890    0.06718    1.000
    Si5792   Si       0.93347    0.80871    0.08869    1.000
    N5793    N        0.94731    0.76843    0.09687    1.000
    Si5794   Si       0.97757    0.85622    0.03197    1.000
    N5795    N        0.95505    0.83870    0.00138    1.000
    N5796    N        0.97251    0.89731    0.02224    1.000
    N5797    N        0.94610    0.92096    0.07306    1.000
    N5798    N        0.98101    0.99108    0.05519    1.000
    Si5799   Si       0.95937    0.93434    0.11386    1.000
    Si5800   Si       0.93057    0.90589    0.03574    1.000
    Si5801   Si       0.97609    0.76601    0.20661    1.000
    Si5802   Si       0.95200    0.81830    0.16689    1.000
    N5803    N        0.96241    0.77517    0.16656    1.000
    N5804    N        0.93993    0.76544    0.23309    1.000
    N5805    N        0.93326    0.82766    0.12759    1.000
    N5806    N        0.95881    0.97593    0.12638    1.000
    N5807    N        0.96569    0.90714    0.14904    1.000
    Si5808   Si       0.95465    0.95714    0.23785    1.000
    N5809    N        0.94168    0.99721    0.23236    1.000
    N5810    N        0.95733    0.93115    0.20297    1.000
    Si5811   Si       0.94198    0.00619    0.06812    1.000
    N5812    N        0.96135    0.85403    0.34358    1.000
    N5813    N        0.95482    0.83533    0.27475    1.000
    Si5814   Si       0.95893    0.87311    0.25225    1.000
    N5815    N        0.98204    0.76573    0.29546    1.000
    Si5816   Si       0.93293    0.82663    0.35967    1.000
    Si5817   Si       0.98280    0.80192    0.26989    1.000
    Si5818   Si       0.94796    0.76124    0.32336    1.000
    N5819    N        0.95398    0.94432    0.31938    1.000
    Si5820   Si       0.95428    0.94023    0.36201    1.000
    N5821    N        0.98270    0.89424    0.28360    1.000
    N5822    N        0.96401    0.86839    0.40933    1.000
    N5823    N        0.97400    0.80611    0.45674    1.000
    Si5824   Si       0.94722    0.77538    0.47743    1.000
    N5825    N        0.94702    0.80118    0.39373    1.000
    Si5826   Si       0.95276    0.82993    0.42718    1.000
    Si5827   Si       0.93482    0.90156    0.41996    1.000
    N5828    N        0.93172    0.96997    0.47050    1.000
    N5829    N        0.94810    0.97924    0.37822    1.000
    Si5830   Si       0.98414    0.99752    0.39395    1.000
    N5831    N        0.96784    0.92207    0.43899    1.000
    Si5832   Si       0.96901    0.94749    0.47304    1.000
    Si5833   Si       0.95384    0.81501    0.60950    1.000
    N5834    N        0.93543    0.86404    0.50601    1.000
    N5835    N        0.94687    0.85666    0.61734    1.000
    Si5836   Si       0.97673    0.87848    0.50791    1.000
    Si5837   Si       0.94109    0.88634    0.58742    1.000
    N5838    N        0.97471    0.91069    0.57583    1.000
    Si5839   Si       0.96471    0.94228    0.54778    1.000
    N5840    N        0.93983    0.97190    0.57082    1.000
    N5841    N        0.97143    0.92292    0.50936    1.000
    Si5842   Si       0.96735    0.00453    0.56242    1.000
    Si5843   Si       0.96989    0.94008    0.62128    1.000
    N5844    N        0.95079    0.79009    0.64581    1.000
    N5845    N        0.95753    0.85120    0.68428    1.000
    Si5846   Si       0.98337    0.76584    0.66054    1.000
    N5847    N        0.97016    0.76072    0.73955    1.000
    Si5848   Si       0.97457    0.97400    0.68444    1.000
    Si5849   Si       0.94767    0.88168    0.65396    1.000
    N5850    N        0.98298    0.90729    0.64893    1.000
    N5851    N        0.95111    0.97258    0.64533    1.000
    N5852    N        0.94367    0.88440    0.73942    1.000
    N5853    N        0.96314    0.94540    0.71653    1.000
    Si5854   Si       0.93728    0.92716    0.74618    1.000
    N5855    N        0.96250    0.80286    0.79278    1.000
    Si5856   Si       0.95435    0.83903    0.81461    1.000
    N5857    N        0.96647    0.83914    0.85646    1.000
    N5858    N        0.97922    0.76937    0.85135    1.000
    Si5859   Si       0.95447    0.76691    0.81584    1.000
    Si5860   Si       0.98209    0.87026    0.75240    1.000
    N5861    N        0.98615    0.86620    0.79417    1.000
    N5862    N        0.96532    0.95268    0.84179    1.000
    N5863    N        0.96699    0.93050    0.77736    1.000
    Si5864   Si       0.97048    0.91593    0.81831    1.000
    N5865    N        0.93862    0.89307    0.83240    1.000
    Si5866   Si       0.97802    0.98377    0.96283    1.000
    N5867    N        0.92911    0.84479    0.94698    1.000
    Si5868   Si       0.95040    0.87710    0.87143    1.000
    N5869    N        0.95675    0.79820    0.91529    1.000
    Si5870   Si       0.96381    0.82056    0.96129    1.000
    N5871    N        0.97225    0.77872    0.97146    1.000
    Si5872   Si       0.98159    0.80360    0.87788    1.000
    Si5873   Si       0.96540    0.75928    0.93230    1.000
    N5874    N        0.97490    0.90167    0.89793    1.000
    Si5875   Si       0.96869    0.93235    0.92852    1.000
    N5876    N        0.96719    0.97578    0.92025    1.000
    N5877    N        0.93391    0.91877    0.94894    1.000
    N5878    N        0.93874    0.98119    0.98565    1.000
    Si5879   Si       0.95638    0.00579    0.89164    1.000
