# CIF file generated by openbabel 3.1.1, see https://openbabel.org
data_I
_chemical_name_common '3.01-47.aims'
_cell_length_a 39.9128
_cell_length_b 39.9128
_cell_length_c 39.9128
_cell_angle_alpha 90
_cell_angle_beta 90
_cell_angle_gamma 90
loop_
    _atom_site_label
    _atom_site_type_symbol
    _atom_site_fract_x
    _atom_site_fract_y
    _atom_site_fract_z
    _atom_site_occupancy
    Si0      Si       0.02122    0.04065    0.03298    1.000
    N1       N        0.03162    0.04891    0.11266    1.000
    Si2      Si       0.05279    0.01270    0.09943    1.000
    N3       N        0.03967    0.01129    0.06041    1.000
    N4       N        0.14199    0.02868    0.21725    1.000
    Si5      Si       0.98893    0.04834    0.12362    1.000
    Si6      Si       0.19533    0.05995    0.08905    1.000
    N7       N        0.16275    0.01515    0.00747    1.000
    Si8      Si       0.17372    0.01851    0.04805    1.000
    N9       N        0.15749    0.03481    0.08470    1.000
    N10      N        0.20303    0.04909    0.04574    1.000
    N11      N        0.21972    0.03684    0.11536    1.000
    Si12     Si       0.13270    0.02445    0.11845    1.000
    N13      N        0.07983    0.03636    0.21905    1.000
    N14      N        0.00530    0.05446    0.23243    1.000
    Si15     Si       0.03811    0.02381    0.23006    1.000
    Si16     Si       0.23024    0.02704    0.21406    1.000
    Si17     Si       0.11148    0.06235    0.23474    1.000
    N18      N        0.20062    0.03415    0.18212    1.000
    Si19     Si       0.20486    0.00990    0.14663    1.000
    Si20     Si       0.15828    0.03431    0.17731    1.000
    N21      N        0.12610    0.05035    0.15092    1.000
    N22      N        0.08581    0.03909    0.33887    1.000
    Si23     Si       0.02772    0.03126    0.30657    1.000
    N24      N        0.02429    0.01250    0.34727    1.000
    Si25     Si       0.19005    0.04553    0.43425    1.000
    N26      N        0.11364    0.06568    0.27818    1.000
    N27      N        0.16377    0.01945    0.28554    1.000
    Si28     Si       0.15487    0.06090    0.29177    1.000
    Si29     Si       0.14759    0.04604    0.36781    1.000
    N30      N        0.11620    0.06162    0.39459    1.000
    N31      N        0.02714    0.05175    0.45678    1.000
    N32      N        0.99090    0.01047    0.41234    1.000
    Si33     Si       0.02645    0.01324    0.43800    1.000
    Si34     Si       0.07744    0.06675    0.37191    1.000
    N35      N        0.18317    0.00679    0.45288    1.000
    N36      N        0.18461    0.03791    0.39221    1.000
    Si37     Si       0.08556    0.07106    0.31050    1.000
    N38      N        0.11469    0.00295    0.45254    1.000
    Si39     Si       0.14786    0.00831    0.47902    1.000
    Si40     Si       0.07232    0.04631    0.53688    1.000
    N41      N        0.04486    0.05417    0.56983    1.000
    Si42     Si       0.00275    0.06111    0.56235    1.000
    N43      N        0.09707    0.03961    0.61532    1.000
    N44      N        0.11169    0.04639    0.55302    1.000
    N45      N        0.15708    0.02969    0.66201    1.000
    N46      N        0.15651    0.03982    0.50679    1.000
    Si47     Si       0.13833    0.01472    0.54035    1.000
    N48      N        0.19405    0.02355    0.72570    1.000
    N49      N        0.08943    0.06416    0.68414    1.000
    N50      N        0.03246    0.02031    0.69415    1.000
    Si51     Si       0.04598    0.06195    0.68306    1.000
    N52      N        0.20139    0.01150    0.61853    1.000
    N53      N        0.12557    0.02493    0.72411    1.000
    Si54     Si       0.22284    0.05143    0.70923    1.000
    Si55     Si       0.11775    0.03083    0.68100    1.000
    Si56     Si       0.18124    0.05227    0.63067    1.000
    Si57     Si       0.12029    0.06874    0.58930    1.000
    Si58     Si       0.15917    0.03834    0.74935    1.000
    N59      N        0.07889    0.02702    0.83447    1.000
    N60      N        0.01065    0.02324    0.82119    1.000
    N61      N        0.05394    0.02584    0.76450    1.000
    Si62     Si       0.99937    0.04379    0.85685    1.000
    Si63     Si       0.05091    0.01323    0.80529    1.000
    N64      N        0.23091    0.01757    0.79700    1.000
    N65      N        0.16087    0.01382    0.78561    1.000
    N66      N        0.17324    0.05609    0.87661    1.000
    Si67     Si       0.00678    0.02711    0.93323    1.000
    N68      N        0.99594    0.01629    0.89150    1.000
    N69      N        0.11503    0.02248    0.89426    1.000
    N70      N        0.22470    0.05727    0.91132    1.000
    Si71     Si       0.13248    0.06243    0.89051    1.000
    N72      N        0.21227    0.05754    0.97775    1.000
    Si73     Si       0.18861    0.02066    0.97215    1.000
    Si74     Si       0.19473    0.02689    0.90360    1.000
    N75      N        0.16807    0.02217    0.93656    1.000
    N76      N        0.04509    0.02638    0.99921    1.000
    Si77     Si       0.04795    0.08863    0.10834    1.000
    N78      N        0.09211    0.09088    0.10183    1.000
    N79      N        0.03241    0.10950    0.07314    1.000
    N80      N        0.01785    0.08018    0.01310    1.000
    Si81     Si       0.01564    0.11970    0.02907    1.000
    N82      N        0.22955    0.11042    0.02670    1.000
    Si83     Si       0.20233    0.07956    0.01362    1.000
    N84      N        0.19810    0.10137    0.09084    1.000
    N85      N        0.16255    0.09749    0.00905    1.000
    Si86     Si       0.16710    0.11063    0.23591    1.000
    N87      N        0.08977    0.11245    0.16699    1.000
    N88      N        0.02768    0.11662    0.13693    1.000
    N89      N        0.12986    0.09914    0.22002    1.000
    N90      N        0.15307    0.10967    0.13760    1.000
    Si91     Si       0.11412    0.08977    0.14023    1.000
    N92      N        0.19428    0.12216    0.20458    1.000
    N93      N        0.08456    0.09903    0.34400    1.000
    Si94     Si       0.02783    0.11081    0.30708    1.000
    N95      N        0.00980    0.12133    0.34571    1.000
    N96      N        0.04322    0.07081    0.30185    1.000
    N97      N        0.99420    0.10772    0.27839    1.000
    N98      N        0.23874    0.12568    0.26055    1.000
    Si99     Si       0.22452    0.08365    0.26813    1.000
    Si100    Si       0.16800    0.11337    0.34137    1.000
    N101     N        0.18189    0.08171    0.26498    1.000
    N102     N        0.15885    0.07175    0.33380    1.000
    N103     N        0.20499    0.12395    0.32149    1.000
    Si104    Si       0.02129    0.07683    0.49272    1.000
    Si105    Si       0.00743    0.09662    0.38056    1.000
    N106     N        0.01929    0.11388    0.46274    1.000
    Si107    Si       0.04797    0.08752    0.43927    1.000
    N108     N        0.04547    0.08115    0.39591    1.000
    N109     N        0.08772    0.09607    0.45166    1.000
    Si110    Si       0.08854    0.10760    0.49271    1.000
    N111     N        0.22342    0.07469    0.43602    1.000
    Si112    Si       0.12329    0.09080    0.42580    1.000
    Si113    Si       0.15773    0.08094    0.49309    1.000
    N114     N        0.15538    0.07410    0.45030    1.000
    Si115    Si       0.21890    0.10395    0.46985    1.000
    N116     N        0.18156    0.11611    0.38280    1.000
    Si117    Si       0.21581    0.10376    0.40510    1.000
    N118     N        0.08839    0.10113    0.59390    1.000
    N119     N        0.06095    0.07656    0.50862    1.000
    N120     N        0.99215    0.07544    0.52253    1.000
    Si121    Si       0.06350    0.06821    0.60634    1.000
    Si122    Si       0.21065    0.11401    0.54389    1.000
    N123     N        0.15549    0.08103    0.61003    1.000
    N124     N        0.12892    0.10875    0.50675    1.000
    N125     N        0.19311    0.10108    0.50509    1.000
    Si126    Si       0.16987    0.12396    0.60735    1.000
    N127     N        0.17544    0.12689    0.56467    1.000
    N128     N        0.98839    0.09273    0.58879    1.000
    N129     N        0.23766    0.08620    0.56088    1.000
    N130     N        0.22011    0.07284    0.62499    1.000
    Si131    Si       0.09980    0.10267    0.70090    1.000
    N132     N        0.02624    0.09660    0.70526    1.000
    N133     N        0.08420    0.10798    0.74041    1.000
    N134     N        0.03576    0.07274    0.63922    1.000
    Si135    Si       0.99362    0.08104    0.63069    1.000
    Si136    Si       0.04444    0.12660    0.73251    1.000
    N137     N        0.14091    0.11424    0.69062    1.000
    N138     N        0.20607    0.08764    0.68951    1.000
    Si139    Si       0.22222    0.10506    0.65365    1.000
    Si140    Si       0.17496    0.10686    0.71446    1.000
    N141     N        0.06836    0.09265    0.81081    1.000
    Si142    Si       0.09311    0.11395    0.78242    1.000
    N143     N        0.10625    0.08541    0.86628    1.000
    N144     N        0.03362    0.07034    0.86673    1.000
    Si145    Si       0.07297    0.06865    0.84600    1.000
    Si146    Si       0.17146    0.11736    0.77581    1.000
    N147     N        0.23585    0.07664    0.84465    1.000
    N148     N        0.19709    0.12022    0.80917    1.000
    Si149    Si       0.23865    0.11453    0.82444    1.000
    N150     N        0.13394    0.12308    0.79408    1.000
    N151     N        0.16694    0.08125    0.74894    1.000
    N152     N        0.07409    0.11119    0.91499    1.000
    Si153    Si       0.03621    0.09149    0.90840    1.000
    N154     N        0.07811    0.08865    0.98142    1.000
    Si155    Si       0.10063    0.10305    0.94714    1.000
    Si156    Si       0.09901    0.12510    0.88366    1.000
    N157     N        0.13625    0.09020    0.92599    1.000
    N158     N        0.19807    0.12230    0.89125    1.000
    Si159    Si       0.20960    0.08129    0.87762    1.000
    Si160    Si       0.16337    0.12670    0.91774    1.000
    N161     N        0.98721    0.09111    0.81388    1.000
    Si162    Si       0.04291    0.06642    0.97997    1.000
    N163     N        0.02574    0.06512    0.94125    1.000
    N164     N        0.07776    0.15281    0.10741    1.000
    N165     N        0.03589    0.14039    0.99862    1.000
    Si166    Si       0.10298    0.12934    0.08139    1.000
    Si167    Si       0.07700    0.12810    0.00076    1.000
    N168     N        0.09997    0.12583    0.03736    1.000
    Si169    Si       0.16178    0.17795    0.05393    1.000
    N170     N        0.15606    0.17081    0.01252    1.000
    N171     N        0.20375    0.16400    0.06684    1.000
    N172     N        0.14387    0.15029    0.08196    1.000
    Si173    Si       0.17467    0.13367    0.10562    1.000
    Si174    Si       0.13647    0.13187    0.01202    1.000
    Si175    Si       0.98997    0.13251    0.15303    1.000
    N176     N        0.06880    0.13673    0.22924    1.000
    N177     N        0.06531    0.17260    0.17713    1.000
    Si178    Si       0.03742    0.16072    0.20884    1.000
    Si179    Si       0.06276    0.14172    0.14628    1.000
    N180     N        0.00296    0.16083    0.18331    1.000
    Si181    Si       0.10384    0.13092    0.20310    1.000
    N182     N        0.03650    0.18640    0.24652    1.000
    N183     N        0.18760    0.16095    0.14031    1.000
    N184     N        0.23431    0.17779    0.20543    1.000
    Si185    Si       0.23406    0.13564    0.21795    1.000
    Si186    Si       0.16840    0.13468    0.16929    1.000
    N187     N        0.13695    0.15842    0.18921    1.000
    Si188    Si       0.22526    0.12507    0.06732    1.000
    Si189    Si       0.07201    0.16172    0.26256    1.000
    Si190    Si       0.09055    0.13900    0.33160    1.000
    N191     N        0.06126    0.13837    0.29725    1.000
    N192     N        0.07929    0.16518    0.36281    1.000
    N193     N        0.11095    0.17842    0.26407    1.000
    Si194    Si       0.14456    0.18444    0.33789    1.000
    Si195    Si       0.20943    0.14867    0.28683    1.000
    N196     N        0.13606    0.14211    0.33165    1.000
    N197     N        0.17386    0.14543    0.26395    1.000
    Si198    Si       0.15410    0.18414    0.26507    1.000
    N199     N        0.17138    0.18352    0.37293    1.000
    N200     N        0.99545    0.18115    0.38146    1.000
    Si201    Si       0.09266    0.16458    0.40421    1.000
    Si202    Si       0.03781    0.15399    0.46772    1.000
    N203     N        0.05730    0.16060    0.43127    1.000
    N204     N        0.00894    0.18146    0.48527    1.000
    Si205    Si       0.16326    0.15124    0.40363    1.000
    N206     N        0.17166    0.18012    0.43604    1.000
    N207     N        0.21723    0.13419    0.43774    1.000
    Si208    Si       0.21948    0.17882    0.44206    1.000
    N209     N        0.12402    0.13304    0.40941    1.000
    N210     N        0.99065    0.16993    0.30489    1.000
    N211     N        0.23359    0.18389    0.29502    1.000
    Si212    Si       0.10101    0.14361    0.59341    1.000
    N213     N        0.00337    0.15586    0.60703    1.000
    Si214    Si       0.07485    0.17183    0.53155    1.000
    Si215    Si       0.99958    0.17514    0.52641    1.000
    N216     N        0.07542    0.17679    0.60751    1.000
    N217     N        0.03582    0.18328    0.55022    1.000
    Si218    Si       0.03200    0.18450    0.59414    1.000
    N219     N        0.06744    0.14460    0.49893    1.000
    N220     N        0.11200    0.15735    0.55211    1.000
    Si221    Si       0.14749    0.13785    0.53222    1.000
    N222     N        0.23236    0.14896    0.53289    1.000
    N223     N        0.16477    0.17620    0.52320    1.000
    N224     N        0.13305    0.14404    0.62143    1.000
    N225     N        0.05871    0.16928    0.72583    1.000
    Si226    Si       0.05976    0.17149    0.68171    1.000
    N227     N        0.01716    0.17486    0.67431    1.000
    N228     N        0.08427    0.13710    0.67511    1.000
    N229     N        0.18134    0.14249    0.73982    1.000
    N230     N        0.19947    0.13902    0.63607    1.000
    Si231    Si       0.12520    0.14797    0.66581    1.000
    Si232    Si       0.15754    0.17866    0.72554    1.000
    Si233    Si       0.21310    0.18003    0.64733    1.000
    N234     N        0.23165    0.17231    0.68558    1.000
    N235     N        0.13854    0.18249    0.68663    1.000
    N236     N        0.01926    0.14850    0.83755    1.000
    N237     N        0.08240    0.15736    0.78813    1.000
    N238     N        0.08656    0.15850    0.85597    1.000
    Si239    Si       0.05860    0.16580    0.82449    1.000
    N240     N        0.01516    0.13551    0.76208    1.000
    Si241    Si       0.99846    0.13016    0.80463    1.000
    Si242    Si       0.12808    0.16652    0.79516    1.000
    Si243    Si       0.12319    0.18197    0.86476    1.000
    N244     N        0.19623    0.19017    0.87273    1.000
    Si245    Si       0.22146    0.15744    0.88508    1.000
    Si246    Si       0.00257    0.15851    0.87720    1.000
    N247     N        0.11140    0.13756    0.97560    1.000
    N248     N        0.23992    0.17322    0.92003    1.000
    N249     N        0.00759    0.12473    0.90437    1.000
    Si250    Si       0.15906    0.18036    0.97040    1.000
    N251     N        0.13343    0.14974    0.89504    1.000
    Si252    Si       0.22521    0.15314    0.95521    1.000
    N253     N        0.18091    0.14605    0.95183    1.000
    N254     N        0.07624    0.20930    0.05566    1.000
    Si255    Si       0.03280    0.21866    0.05357    1.000
    Si256    Si       0.06945    0.19493    0.09627    1.000
    N257     N        0.02662    0.19907    0.09304    1.000
    N258     N        0.01200    0.19772    0.02318    1.000
    Si259    Si       0.10884    0.23760    0.04867    1.000
    N260     N        0.20123    0.21967    0.10224    1.000
    Si261    Si       0.22419    0.20102    0.07115    1.000
    N262     N        0.22632    0.22633    0.03605    1.000
    N263     N        0.14629    0.22021    0.06147    1.000
    Si264    Si       0.20389    0.23940    0.00033    1.000
    N265     N        0.08949    0.21549    0.13020    1.000
    Si266    Si       0.08099    0.21058    0.17289    1.000
    Si267    Si       0.03042    0.22872    0.22861    1.000
    N268     N        0.04665    0.23304    0.18786    1.000
    Si269    Si       0.20902    0.21313    0.20886    1.000
    N270     N        0.11490    0.22397    0.19690    1.000
    N271     N        0.17229    0.20253    0.23096    1.000
    Si272    Si       0.14930    0.19970    0.19346    1.000
    Si273    Si       0.20419    0.20044    0.14033    1.000
    N274     N        0.18224    0.22118    0.17236    1.000
    N275     N        0.98972    0.22600    0.21034    1.000
    Si276    Si       0.07341    0.20713    0.34833    1.000
    N277     N        0.04915    0.21009    0.31278    1.000
    Si278    Si       0.01511    0.19959    0.28639    1.000
    N279     N        0.01147    0.24126    0.27179    1.000
    N280     N        0.11468    0.21556    0.33731    1.000
    Si281    Si       0.20584    0.21687    0.30933    1.000
    N282     N        0.21221    0.23355    0.34737    1.000
    N283     N        0.17019    0.19530    0.30375    1.000
    N284     N        0.14141    0.23701    0.47292    1.000
    Si285    Si       0.08362    0.23674    0.41459    1.000
    N286     N        0.05566    0.22601    0.38268    1.000
    N287     N        0.00969    0.22542    0.43393    1.000
    Si288    Si       0.01377    0.21947    0.39067    1.000
    N289     N        0.11149    0.20333    0.41630    1.000
    Si290    Si       0.10183    0.24051    0.48755    1.000
    Si291    Si       0.19208    0.21890    0.38376    1.000
    N292     N        0.22715    0.21037    0.40994    1.000
    N293     N        0.22222    0.19392    0.48335    1.000
    Si294    Si       0.14844    0.21694    0.43630    1.000
    N295     N        0.16483    0.24434    0.40522    1.000
    N296     N        0.09570    0.20690    0.51412    1.000
    N297     N        0.03176    0.21960    0.61793    1.000
    N298     N        0.22454    0.21890    0.55125    1.000
    Si299    Si       0.13191    0.19903    0.53663    1.000
    N300     N        0.13494    0.23028    0.56530    1.000
    N301     N        0.23684    0.20414    0.61818    1.000
    Si302    Si       0.20874    0.18566    0.52383    1.000
    Si303    Si       0.07734    0.21562    0.62694    1.000
    N304     N        0.07825    0.20972    0.67026    1.000
    Si305    Si       0.19515    0.24065    0.69305    1.000
    Si306    Si       0.22802    0.19852    0.71990    1.000
    Si307    Si       0.21613    0.24227    0.62891    1.000
    N308     N        0.18569    0.21337    0.72416    1.000
    Si309    Si       0.12078    0.21904    0.67304    1.000
    N310     N        0.11882    0.23156    0.63142    1.000
    N311     N        0.19143    0.21834    0.65632    1.000
    N312     N        0.05224    0.20829    0.82305    1.000
    Si313    Si       0.02777    0.22515    0.85539    1.000
    N314     N        0.08062    0.23141    0.76119    1.000
    Si315    Si       0.08394    0.18725    0.75530    1.000
    N316     N        0.21166    0.22163    0.81148    1.000
    Si317    Si       0.17994    0.21442    0.84220    1.000
    N318     N        0.14445    0.18974    0.82735    1.000
    N319     N        0.99808    0.19205    0.95422    1.000
    N320     N        0.06327    0.20207    0.97455    1.000
    Si321    Si       0.00233    0.22258    0.92200    1.000
    Si322    Si       0.09801    0.22667    0.97228    1.000
    N323     N        0.01470    0.19867    0.88701    1.000
    Si324    Si       0.13133    0.24184    0.91894    1.000
    N325     N        0.19389    0.21028    0.97001    1.000
    Si326    Si       0.20906    0.23879    0.94009    1.000
    N327     N        0.13056    0.20590    0.95136    1.000
    N328     N        0.11625    0.21859    0.88442    1.000
    Si329    Si       0.06772    0.24174    0.80030    1.000
    N330     N        0.12812    0.18317    0.75480    1.000
    Si331    Si       0.02751    0.18187    0.98494    1.000
    N332     N        0.09188    0.26595    0.08150    1.000
    N333     N        0.01440    0.25668    0.05615    1.000
    Si334    Si       0.10390    0.25557    0.12100    1.000
    N335     N        0.11224    0.24858    0.00628    1.000
    N336     N        0.18865    0.28130    0.07106    1.000
    Si337    Si       0.22528    0.28785    0.09530    1.000
    N338     N        0.17636    0.27315    0.00026    1.000
    Si339    Si       0.16995    0.24742    0.08888    1.000
    Si340    Si       0.17364    0.29944    0.03429    1.000
    N341     N        0.08058    0.27781    0.15044    1.000
    Si342    Si       0.04331    0.27175    0.17096    1.000
    N343     N        0.00709    0.28701    0.15464    1.000
    Si344    Si       0.10858    0.24943    0.23248    1.000
    Si345    Si       0.17715    0.26274    0.15737    1.000
    N346     N        0.22824    0.25036    0.21268    1.000
    N347     N        0.17525    0.29671    0.18435    1.000
    N348     N        0.11717    0.28928    0.21325    1.000
    N349     N        0.14797    0.25807    0.12509    1.000
    N350     N        0.21155    0.28233    0.13509    1.000
    Si351    Si       0.98833    0.28173    0.03477    1.000
    N352     N        0.00135    0.28565    0.99377    1.000
    N353     N        0.08007    0.27033    0.31273    1.000
    Si354    Si       0.99424    0.28227    0.27563    1.000
    Si355    Si       0.05264    0.24685    0.28828    1.000
    N356     N        0.06829    0.24783    0.24850    1.000
    N357     N        0.20694    0.24817    0.27992    1.000
    Si358    Si       0.11997    0.25320    0.31437    1.000
    N359     N        0.15691    0.27411    0.32223    1.000
    Si360    Si       0.16811    0.26857    0.28153    1.000
    N361     N        0.13074    0.24963    0.26997    1.000
    Si362    Si       0.23684    0.26857    0.35125    1.000
    N363     N        0.99280    0.25082    0.37115    1.000
    N364     N        0.07060    0.24293    0.45616    1.000
    N365     N        0.00357    0.28225    0.47692    1.000
    N366     N        0.09897    0.27644    0.40204    1.000
    Si367    Si       0.03045    0.26037    0.45053    1.000
    N368     N        0.03540    0.29638    0.42308    1.000
    Si369    Si       0.15266    0.27895    0.48992    1.000
    Si370    Si       0.14315    0.28113    0.40877    1.000
    N371     N        0.15524    0.29507    0.44916    1.000
    N372     N        0.00757    0.27306    0.55096    1.000
    Si373    Si       0.03907    0.28110    0.57938    1.000
    N374     N        0.07042    0.25217    0.57048    1.000
    Si375    Si       0.10878    0.26622    0.55645    1.000
    N376     N        0.01829    0.28251    0.62094    1.000
    N377     N        0.11328    0.27402    0.51196    1.000
    N378     N        0.12334    0.28755    0.59091    1.000
    N379     N        0.18809    0.27655    0.51752    1.000
    N380     N        0.18579    0.26336    0.60490    1.000
    Si381    Si       0.22409    0.26228    0.53897    1.000
    N382     N        0.23088    0.29467    0.56603    1.000
    Si383    Si       0.14298    0.25250    0.60520    1.000
    Si384    Si       0.09712    0.25975    0.73371    1.000
    N385     N        0.06853    0.28942    0.72452    1.000
    N386     N        0.12555    0.25298    0.70095    1.000
    N387     N        0.18472    0.28211    0.69350    1.000
    Si388    Si       0.14879    0.29083    0.71957    1.000
    Si389    Si       0.99952    0.24496    0.62927    1.000
    N390     N        0.03637    0.27102    0.78918    1.000
    N391     N        0.10154    0.26323    0.81972    1.000
    Si392    Si       0.10139    0.25385    0.86320    1.000
    Si393    Si       0.99351    0.26464    0.79930    1.000
    N394     N        0.99202    0.23985    0.83810    1.000
    N395     N        0.05801    0.25374    0.87187    1.000
    Si396    Si       0.13417    0.28521    0.99295    1.000
    Si397    Si       0.11659    0.29512    0.79474    1.000
    N398     N        0.21486    0.29406    0.79667    1.000
    Si399    Si       0.21490    0.26397    0.82809    1.000
    N400     N        0.18040    0.25762    0.85199    1.000
    N401     N        0.12726    0.28063    0.75756    1.000
    Si402    Si       0.02310    0.29597    0.95934    1.000
    N403     N        0.09936    0.25822    0.94332    1.000
    Si404    Si       0.04302    0.28520    0.89657    1.000
    N405     N        0.02550    0.26408    0.93011    1.000
    N406     N        0.20988    0.30595    0.89468    1.000
    Si407    Si       0.09320    0.30267    0.94218    1.000
    Si408    Si       0.17004    0.28620    0.88629    1.000
    N409     N        0.23887    0.24798    0.97370    1.000
    N410     N        0.12677    0.27833    0.88974    1.000
    N411     N        0.17269    0.25280    0.92201    1.000
    Si412    Si       0.01931    0.33773    0.07291    1.000
    N413     N        0.03828    0.31587    0.10598    1.000
    N414     N        0.10071    0.33380    0.08569    1.000
    N415     N        0.04959    0.31786    0.04456    1.000
    Si416    Si       0.05375    0.33499    0.00550    1.000
    Si417    Si       0.07053    0.30097    0.07937    1.000
    Si418    Si       0.11038    0.34584    0.04460    1.000
    N419     N        0.02141    0.36305    0.99537    1.000
    N420     N        0.19757    0.33457    0.02686    1.000
    N421     N        0.13225    0.30963    0.03042    1.000
    N422     N        0.23626    0.32752    0.08388    1.000
    N423     N        0.14357    0.35343    0.21635    1.000
    N424     N        0.00618    0.35117    0.23912    1.000
    N425     N        0.09934    0.34245    0.16239    1.000
    Si426    Si       0.03779    0.34174    0.21236    1.000
    Si427    Si       0.01292    0.32785    0.13958    1.000
    Si428    Si       0.09216    0.30560    0.18307    1.000
    N429     N        0.02317    0.35577    0.17173    1.000
    N430     N        0.07651    0.35866    0.22583    1.000
    N431     N        0.05227    0.30179    0.20090    1.000
    Si432    Si       0.15413    0.31226    0.21897    1.000
    N433     N        0.20130    0.35127    0.14352    1.000
    Si434    Si       0.20829    0.31474    0.16412    1.000
    N435     N        0.08809    0.36343    0.01212    1.000
    Si436    Si       0.23167    0.36071    0.11353    1.000
    N437     N        0.09569    0.33880    0.30289    1.000
    N438     N        0.04971    0.31896    0.35446    1.000
    Si439    Si       0.02138    0.34800    0.28079    1.000
    Si440    Si       0.01282    0.34116    0.35778    1.000
    Si441    Si       0.06440    0.30991    0.31456    1.000
    N442     N        0.03098    0.30637    0.28639    1.000
    N443     N        0.00103    0.35815    0.31864    1.000
    Si444    Si       0.19609    0.33390    0.27944    1.000
    N445     N        0.17000    0.33813    0.31506    1.000
    Si446    Si       0.17255    0.30863    0.34670    1.000
    N447     N        0.23534    0.33281    0.29959    1.000
    Si448    Si       0.23872    0.33926    0.34258    1.000
    N449     N        0.17352    0.30490    0.25772    1.000
    Si450    Si       0.13207    0.35825    0.31640    1.000
    N451     N        0.02819    0.34656    0.47785    1.000
    Si452    Si       0.00990    0.32027    0.45231    1.000
    N453     N        0.08615    0.34646    0.40612    1.000
    Si454    Si       0.06904    0.30773    0.39437    1.000
    N455     N        0.21028    0.34405    0.45420    1.000
    N456     N        0.15161    0.31616    0.38349    1.000
    Si457    Si       0.16818    0.33545    0.45811    1.000
    Si458    Si       0.12886    0.35121    0.39365    1.000
    N459     N        0.14704    0.36621    0.43237    1.000
    N460     N        0.21430    0.30566    0.35480    1.000
    N461     N        0.06317    0.31590    0.58153    1.000
    Si462    Si       0.09444    0.31202    0.61145    1.000
    N463     N        0.09908    0.35611    0.61528    1.000
    Si464    Si       0.05984    0.35774    0.59430    1.000
    Si465    Si       0.19185    0.31929    0.52643    1.000
    N466     N        0.17909    0.33233    0.56515    1.000
    N467     N        0.23049    0.33871    0.51796    1.000
    N468     N        0.15824    0.32786    0.50159    1.000
    Si469    Si       0.19744    0.30288    0.59314    1.000
    N470     N        0.02423    0.35239    0.62001    1.000
    N471     N        0.06341    0.35144    0.69581    1.000
    Si472    Si       0.08567    0.31402    0.69184    1.000
    Si473    Si       0.02514    0.33794    0.70960    1.000
    Si474    Si       0.02758    0.31748    0.64462    1.000
    N475     N        0.00723    0.30899    0.68217    1.000
    N476     N        0.07446    0.30452    0.64954    1.000
    N477     N        0.18695    0.35995    0.68329    1.000
    N478     N        0.17910    0.32012    0.74041    1.000
    N479     N        0.12779    0.32363    0.69976    1.000
    N480     N        0.20891    0.32329    0.62702    1.000
    Si481    Si       0.20219    0.32139    0.70274    1.000
    N482     N        0.08090    0.32172    0.78909    1.000
    N483     N        0.02656    0.34937    0.81733    1.000
    Si484    Si       0.99637    0.32544    0.83684    1.000
    N485     N        0.09514    0.35201    0.85114    1.000
    N486     N        0.02038    0.33056    0.75260    1.000
    Si487    Si       0.06919    0.35527    0.81561    1.000
    Si488    Si       0.05023    0.30242    0.76441    1.000
    N489     N        0.14885    0.32005    0.80902    1.000
    Si490    Si       0.13676    0.34412    0.84189    1.000
    Si491    Si       0.18560    0.32376    0.78361    1.000
    Si492    Si       0.14407    0.35215    0.94723    1.000
    N493     N        0.01316    0.30555    0.87082    1.000
    N494     N        0.06940    0.31950    0.90958    1.000
    N495     N        0.00611    0.32626    0.93572    1.000
    N496     N        0.06283    0.30690    0.97484    1.000
    Si497    Si       0.99667    0.35927    0.96015    1.000
    Si498    Si       0.08356    0.35908    0.89478    1.000
    Si499    Si       0.19549    0.34681    0.88880    1.000
    N500     N        0.15887    0.33059    0.87484    1.000
    N501     N        0.13111    0.31293    0.96095    1.000
    N502     N        0.18002    0.36482    0.92457    1.000
    N503     N        0.02646    0.37893    0.06652    1.000
    Si504    Si       0.00926    0.39167    0.02798    1.000
    Si505    Si       0.07844    0.40533    0.01539    1.000
    Si506    Si       0.05288    0.40749    0.08591    1.000
    N507     N        0.08920    0.40967    0.06062    1.000
    Si508    Si       0.23434    0.39237    0.24382    1.000
    Si509    Si       0.17695    0.37187    0.02334    1.000
    N510     N        0.14399    0.37273    0.04997    1.000
    N511     N        0.20309    0.40590    0.03122    1.000
    N512     N        0.20231    0.39173    0.09641    1.000
    Si513    Si       0.12924    0.40378    0.07671    1.000
    N514     N        0.13286    0.38516    0.11525    1.000
    N515     N        0.16672    0.41912    0.22534    1.000
    N516     N        0.06182    0.38619    0.12363    1.000
    Si517    Si       0.03625    0.39528    0.15694    1.000
    N518     N        0.99585    0.40858    0.14493    1.000
    Si519    Si       0.10857    0.36917    0.19660    1.000
    N520     N        0.10946    0.41076    0.19057    1.000
    Si521    Si       0.16170    0.37996    0.24307    1.000
    Si522    Si       0.17343    0.38325    0.12901    1.000
    N523     N        0.18032    0.41022    0.16191    1.000
    Si524    Si       0.09689    0.36056    0.12251    1.000
    N525     N        0.05035    0.38234    0.28430    1.000
    Si526    Si       0.09023    0.36942    0.26611    1.000
    Si527    Si       0.11312    0.41477    0.35953    1.000
    N528     N        0.13076    0.37599    0.35664    1.000
    N529     N        0.13511    0.38137    0.27888    1.000
    N530     N        0.20169    0.36568    0.25413    1.000
    N531     N        0.10048    0.36297    0.48762    1.000
    N532     N        0.05789    0.40210    0.44386    1.000
    N533     N        0.07385    0.41336    0.37818    1.000
    N534     N        0.02196    0.37295    0.38701    1.000
    Si535    Si       0.06005    0.38226    0.40465    1.000
    Si536    Si       0.06105    0.37545    0.47685    1.000
    N537     N        0.08945    0.41931    0.25491    1.000
    Si538    Si       0.14680    0.40261    0.45407    1.000
    N539     N        0.06160    0.39583    0.57668    1.000
    N540     N        0.04296    0.39748    0.50981    1.000
    N541     N        0.99932    0.37868    0.55385    1.000
    Si542    Si       0.02038    0.41085    0.57357    1.000
    Si543    Si       0.10011    0.41327    0.56668    1.000
    Si544    Si       0.00538    0.36965    0.50946    1.000
    N545     N        0.99994    0.41683    0.61031    1.000
    Si546    Si       0.19099    0.41575    0.51553    1.000
    N547     N        0.19018    0.40361    0.55807    1.000
    N548     N        0.12570    0.38048    0.55280    1.000
    Si549    Si       0.16485    0.37092    0.57241    1.000
    N550     N        0.16334    0.37587    0.61599    1.000
    N551     N        0.23521    0.41808    0.50799    1.000
    Si552    Si       0.13421    0.36336    0.51415    1.000
    N553     N        0.99854    0.37128    0.70213    1.000
    Si554    Si       0.07837    0.39300    0.69590    1.000
    Si555    Si       0.00344    0.41373    0.69753    1.000
    N556     N        0.09116    0.41450    0.73050    1.000
    N557     N        0.04695    0.41755    0.67960    1.000
    N558     N        0.11654    0.38954    0.67137    1.000
    N559     N        0.23511    0.38373    0.73167    1.000
    N560     N        0.15526    0.39414    0.72406    1.000
    Si561    Si       0.19502    0.36179    0.64185    1.000
    Si562    Si       0.14423    0.36415    0.69458    1.000
    Si563    Si       0.12250    0.39071    0.62831    1.000
    N564     N        0.23300    0.38353    0.63762    1.000
    Si565    Si       0.19723    0.39050    0.71300    1.000
    N566     N        0.16118    0.39381    0.49535    1.000
    N567     N        0.08547    0.39141    0.79855    1.000
    N568     N        0.03013    0.39834    0.76114    1.000
    Si569    Si       0.06814    0.41480    0.76629    1.000
    Si570    Si       0.00930    0.36300    0.77874    1.000
    N571     N        0.22646    0.40059    0.97295    1.000
    N572     N        0.15062    0.38321    0.82838    1.000
    Si573    Si       0.19421    0.38963    0.82395    1.000
    N574     N        0.21306    0.37357    0.85979    1.000
    Si575    Si       0.12203    0.41108    0.81272    1.000
    N576     N        0.99045    0.39327    0.93418    1.000
    Si577    Si       0.01610    0.40831    0.90210    1.000
    N578     N        0.05573    0.39263    0.88909    1.000
    N579     N        0.11114    0.37537    0.92810    1.000
    Si580    Si       0.11227    0.41764    0.94183    1.000
    Si581    Si       0.18728    0.39761    0.95430    1.000
    Si582    Si       0.23614    0.40225    0.88389    1.000
    N583     N        0.16374    0.37149    0.98239    1.000
    N584     N        0.20597    0.36156    0.79205    1.000
    N585     N        0.03971    0.44644    0.09746    1.000
    Si586    Si       0.02599    0.46383    0.01222    1.000
    Si587    Si       0.99833    0.45884    0.08866    1.000
    N588     N        0.03799    0.42331    0.02054    1.000
    N589     N        0.14586    0.47132    0.18268    1.000
    Si590    Si       0.13445    0.47444    0.05821    1.000
    N591     N        0.21306    0.46324    0.06274    1.000
    N592     N        0.15377    0.43813    0.07294    1.000
    Si593    Si       0.22904    0.46526    0.02244    1.000
    Si594    Si       0.19529    0.42350    0.06975    1.000
    N595     N        0.13231    0.47229    0.01537    1.000
    Si596    Si       0.07697    0.43042    0.21427    1.000
    Si597    Si       0.01012    0.44417    0.20469    1.000
    N598     N        0.08309    0.47299    0.21452    1.000
    N599     N        0.04402    0.42439    0.18593    1.000
    N600     N        0.00677    0.47903    0.05033    1.000
    N601     N        0.21632    0.46679    0.17900    1.000
    Si602    Si       0.22015    0.42461    0.17296    1.000
    Si603    Si       0.14876    0.42820    0.18704    1.000
    N604     N        0.01153    0.43226    0.30470    1.000
    N605     N        0.10492    0.42994    0.32026    1.000
    Si606    Si       0.01202    0.47185    0.28037    1.000
    N607     N        0.06250    0.46985    0.28559    1.000
    Si608    Si       0.08838    0.46947    0.31995    1.000
    Si609    Si       0.05036    0.42584    0.27872    1.000
    Si610    Si       0.22743    0.45879    0.49068    1.000
    N611     N        0.15455    0.45391    0.28063    1.000
    N612     N        0.22301    0.42884    0.26438    1.000
    Si613    Si       0.18728    0.44742    0.25272    1.000
    Si614    Si       0.12377    0.42341    0.28305    1.000
    N615     N        0.06986    0.47038    0.41791    1.000
    N616     N        0.01401    0.44428    0.38170    1.000
    Si617    Si       0.05613    0.45097    0.38254    1.000
    Si618    Si       0.07521    0.44149    0.45256    1.000
    N619     N        0.05767    0.46294    0.48721    1.000
    N620     N        0.11682    0.43485    0.45118    1.000
    N621     N        0.13491    0.44160    0.38661    1.000
    Si622    Si       0.17147    0.45753    0.36944    1.000
    Si623    Si       0.14600    0.46012    0.42552    1.000
    N624     N        0.20296    0.42817    0.37201    1.000
    N625     N        0.22993    0.47022    0.44796    1.000
    N626     N        0.17856    0.42829    0.43996    1.000
    Si627    Si       0.21131    0.44166    0.41651    1.000
    N628     N        0.02743    0.44232    0.24420    1.000
    N629     N        0.09097    0.44621    0.54094    1.000
    Si630    Si       0.05145    0.43805    0.52200    1.000
    N631     N        0.02280    0.44873    0.55003    1.000
    Si632    Si       0.11353    0.47321    0.61571    1.000
    N633     N        0.11447    0.42988    0.60572    1.000
    Si634    Si       0.19572    0.43585    0.58556    1.000
    N635     N        0.18680    0.45806    0.50507    1.000
    N636     N        0.17333    0.46906    0.56711    1.000
    Si637    Si       0.05116    0.45840    0.66799    1.000
    N638     N        0.99247    0.44261    0.73034    1.000
    N639     N        0.01497    0.47502    0.64752    1.000
    N640     N        0.05088    0.47436    0.70898    1.000
    Si641    Si       0.22759    0.42501    0.65236    1.000
    N642     N        0.21325    0.42773    0.69523    1.000
    Si643    Si       0.18977    0.46223    0.71294    1.000
    Si644    Si       0.13123    0.42607    0.73471    1.000
    N645     N        0.19635    0.44224    0.62827    1.000
    N646     N        0.14669    0.46351    0.71555    1.000
    N647     N        0.23900    0.44036    0.57778    1.000
    N648     N        0.04534    0.45764    0.85387    1.000
    N649     N        0.06547    0.45642    0.78009    1.000
    Si650    Si       0.07136    0.46597    0.82095    1.000
    Si651    Si       0.00109    0.45056    0.84484    1.000
    N652     N        0.10413    0.44185    0.83990    1.000
    Si653    Si       0.99400    0.42339    0.76941    1.000
    N654     N        0.98972    0.45174    0.80246    1.000
    Si655    Si       0.17598    0.45671    0.79056    1.000
    N656     N        0.20272    0.43431    0.81741    1.000
    N657     N        0.14259    0.43135    0.77830    1.000
    N658     N        0.20077    0.46863    0.75557    1.000
    Si659    Si       0.13603    0.46861    0.85205    1.000
    Si660    Si       0.23124    0.45638    0.84219    1.000
    Si661    Si       0.07529    0.43116    0.87376    1.000
    N662     N        0.99559    0.46632    0.98325    1.000
    N663     N        0.09708    0.44314    0.90791    1.000
    N664     N        0.02786    0.44870    0.91536    1.000
    N665     N        0.09120    0.42886    0.98135    1.000
    Si666    Si       0.99691    0.46582    0.94102    1.000
    Si667    Si       0.09633    0.47206    0.99109    1.000
    N668     N        0.15513    0.42768    0.95270    1.000
    N669     N        0.21783    0.42340    0.91585    1.000
    N670     N        0.19908    0.47337    0.99185    1.000
    N671     N        0.16449    0.44699    0.87383    1.000
    Si672    Si       0.15661    0.46867    0.97043    1.000
    Si673    Si       0.19364    0.45873    0.90432    1.000
    N674     N        0.22517    0.47926    0.88057    1.000
    N675     N        0.04683    0.51808    0.09632    1.000
    Si676    Si       0.00501    0.52440    0.10872    1.000
    Si677    Si       0.99527    0.51954    0.04092    1.000
    N678     N        0.06026    0.49100    0.00301    1.000
    Si679    Si       0.06328    0.53440    0.00509    1.000
    Si680    Si       0.06530    0.48172    0.10707    1.000
    N681     N        0.98755    0.48640    0.12224    1.000
    N682     N        0.15819    0.50657    0.07682    1.000
    Si683    Si       0.20005    0.49897    0.08119    1.000
    N684     N        0.21809    0.53355    0.06046    1.000
    Si685    Si       0.99748    0.51951    0.22011    1.000
    Si686    Si       0.10633    0.49095    0.18162    1.000
    N687     N        0.99375    0.48150    0.19396    1.000
    N688     N        0.08129    0.48053    0.14717    1.000
    N689     N        0.11042    0.53334    0.18492    1.000
    Si690    Si       0.18363    0.49087    0.19557    1.000
    N691     N        0.18807    0.53228    0.18468    1.000
    N692     N        0.21049    0.50101    0.12274    1.000
    N693     N        0.19348    0.48720    0.23783    1.000
    Si694    Si       0.20421    0.53887    0.14491    1.000
    N695     N        0.09565    0.47853    0.07645    1.000
    Si696    Si       0.05408    0.52105    0.35849    1.000
    N697     N        0.00334    0.50577    0.30831    1.000
    N698     N        0.09504    0.52715    0.25643    1.000
    Si699    Si       0.06756    0.49262    0.24907    1.000
    N700     N        0.02842    0.51064    0.25081    1.000
    N701     N        0.06421    0.48007    0.35237    1.000
    N702     N        0.17688    0.48126    0.33769    1.000
    N703     N        0.11705    0.50134    0.31229    1.000
    N704     N        0.18395    0.52384    0.29361    1.000
    Si705    Si       0.21622    0.51282    0.26687    1.000
    Si706    Si       0.19245    0.52135    0.33793    1.000
    Si707    Si       0.15723    0.48985    0.30175    1.000
    N708     N        0.23449    0.52021    0.34603    1.000
    N709     N        0.01488    0.52165    0.37933    1.000
    N710     N        0.07398    0.52697    0.45857    1.000
    Si711    Si       0.08807    0.50841    0.42346    1.000
    Si712    Si       0.05329    0.50598    0.48895    1.000
    N713     N        0.08095    0.53567    0.39079    1.000
    Si714    Si       0.99625    0.48424    0.38751    1.000
    N715     N        0.18260    0.48113    0.40511    1.000
    Si716    Si       0.14040    0.52075    0.47350    1.000
    N717     N        0.18309    0.52141    0.46721    1.000
    Si718    Si       0.20478    0.50335    0.43513    1.000
    N719     N        0.12972    0.49896    0.43634    1.000
    Si720    Si       0.10340    0.53875    0.29755    1.000
    N721     N        0.06892    0.51995    0.52633    1.000
    Si722    Si       0.09901    0.49027    0.53980    1.000
    N723     N        0.10784    0.50039    0.58011    1.000
    Si724    Si       0.99826    0.53526    0.53088    1.000
    N725     N        0.13081    0.50005    0.51138    1.000
    N726     N        0.19823    0.52319    0.53149    1.000
    Si727    Si       0.16963    0.48960    0.52989    1.000
    N728     N        0.22791    0.50199    0.61817    1.000
    Si729    Si       0.00217    0.51421    0.66252    1.000
    Si730    Si       0.07719    0.52103    0.66058    1.000
    Si731    Si       0.00687    0.48024    0.72084    1.000
    N732     N        0.03945    0.53479    0.67364    1.000
    N733     N        0.08255    0.47866    0.64638    1.000
    N734     N        0.11750    0.52669    0.68144    1.000
    Si735    Si       0.19287    0.48524    0.63853    1.000
    N736     N        0.19806    0.49131    0.68301    1.000
    N737     N        0.15100    0.49284    0.63213    1.000
    Si738    Si       0.14604    0.53398    0.64492    1.000
    N739     N        0.16607    0.53329    0.72896    1.000
    Si740    Si       0.19511    0.53205    0.69732    1.000
    Si741    Si       0.13278    0.50614    0.71835    1.000
    N742     N        0.01321    0.51904    0.49340    1.000
    N743     N        0.08542    0.50814    0.82237    1.000
    N744     N        0.02413    0.50822    0.75257    1.000
    N745     N        0.10564    0.50529    0.75346    1.000
    Si746    Si       0.09039    0.52967    0.86683    1.000
    Si747    Si       0.06480    0.48699    0.74949    1.000
    N748     N        0.99334    0.48754    0.86701    1.000
    Si749    Si       0.12165    0.51351    0.79551    1.000
    N750     N        0.15171    0.48641    0.81266    1.000
    N751     N        0.06775    0.51015    0.90147    1.000
    N752     N        0.01098    0.50786    0.93005    1.000
    Si753    Si       0.10190    0.48666    0.91280    1.000
    Si754    Si       0.03227    0.48520    0.89017    1.000
    Si755    Si       0.04687    0.53537    0.93188    1.000
    Si756    Si       0.16662    0.53018    0.92392    1.000
    N757     N        0.12267    0.50056    0.87797    1.000
    Si758    Si       0.21056    0.50581    0.96171    1.000
    N759     N        0.11658    0.48662    0.95516    1.000
    N760     N        0.17955    0.48963    0.93410    1.000
    Si761    Si       0.02356    0.58393    0.04873    1.000
    N762     N        0.05625    0.58326    0.07895    1.000
    N763     N        0.09120    0.54469    0.03632    1.000
    N764     N        0.02738    0.54657    0.02827    1.000
    N765     N        0.10962    0.54732    0.10836    1.000
    Si766    Si       0.07802    0.54443    0.07956    1.000
    Si767    Si       0.03451    0.58502    0.12054    1.000
    N768     N        0.20901    0.58553    0.00910    1.000
    Si769    Si       0.12226    0.57437    0.02866    1.000
    Si770    Si       0.20171    0.57186    0.05033    1.000
    N771     N        0.15730    0.56850    0.05297    1.000
    Si772    Si       0.20684    0.59255    0.11398    1.000
    Si773    Si       0.14839    0.54622    0.08829    1.000
    N774     N        0.17822    0.56112    0.11808    1.000
    N775     N        0.15311    0.56362    0.23564    1.000
    N776     N        0.01240    0.55245    0.19689    1.000
    N777     N        0.00107    0.56145    0.12915    1.000
    Si778    Si       0.04717    0.57693    0.19098    1.000
    Si779    Si       0.10596    0.56060    0.15129    1.000
    N780     N        0.08017    0.58328    0.21813    1.000
    N781     N        0.06378    0.57269    0.15034    1.000
    Si782    Si       0.11220    0.55176    0.22457    1.000
    N783     N        0.23597    0.57114    0.14484    1.000
    Si784    Si       0.19066    0.56549    0.21483    1.000
    N785     N        0.02046    0.58042    0.29357    1.000
    Si786    Si       0.05101    0.58350    0.32393    1.000
    N787     N        0.03690    0.57912    0.36483    1.000
    N788     N        0.06626    0.54246    0.32125    1.000
    Si789    Si       0.16262    0.59036    0.46293    1.000
    Si790    Si       0.01194    0.53919    0.27875    1.000
    N791     N        0.13255    0.56955    0.30047    1.000
    Si792    Si       0.17070    0.56113    0.27436    1.000
    Si793    Si       0.15991    0.58342    0.33179    1.000
    N794     N        0.17013    0.54997    0.36113    1.000
    N795     N        0.19193    0.58710    0.30314    1.000
    N796     N        0.21767    0.55189    0.24737    1.000
    Si797    Si       0.99820    0.56240    0.37619    1.000
    Si798    Si       0.06728    0.57513    0.39416    1.000
    Si799    Si       0.08531    0.56843    0.46177    1.000
    N800     N        0.05243    0.58867    0.43317    1.000
    N801     N        0.98709    0.59863    0.47403    1.000
    N802     N        0.22299    0.58784    0.36607    1.000
    N803     N        0.16743    0.58976    0.41983    1.000
    N804     N        0.22095    0.53709    0.41323    1.000
    Si805    Si       0.19659    0.56803    0.39271    1.000
    N806     N        0.19795    0.58632    0.49016    1.000
    N807     N        0.12870    0.56370    0.46596    1.000
    Si808    Si       0.06658    0.56259    0.53132    1.000
    N809     N        0.02352    0.57040    0.53561    1.000
    N810     N        0.09470    0.57339    0.56120    1.000
    Si811    Si       0.10729    0.54313    0.59016    1.000
    N812     N        0.07481    0.58802    0.49882    1.000
    N813     N        0.02338    0.59487    0.61019    1.000
    Si814    Si       0.16858    0.58956    0.59687    1.000
    N815     N        0.20597    0.56943    0.58917    1.000
    N816     N        0.14167    0.55736    0.60889    1.000
    Si817    Si       0.23651    0.54154    0.60301    1.000
    Si818    Si       0.06518    0.59269    0.62345    1.000
    N819     N        0.07980    0.55074    0.62315    1.000
    Si820    Si       0.03470    0.57650    0.68909    1.000
    N821     N        0.04683    0.56992    0.73354    1.000
    N822     N        0.99718    0.58773    0.67104    1.000
    N823     N        0.22391    0.56290    0.70669    1.000
    N824     N        0.18221    0.55211    0.66140    1.000
    Si825    Si       0.20364    0.58874    0.67434    1.000
    Si826    Si       0.24251    0.55988    0.74400    1.000
    Si827    Si       0.20711    0.54527    0.49560    1.000
    N828     N        0.08110    0.56889    0.79227    1.000
    N829     N        0.05357    0.55635    0.85498    1.000
    Si830    Si       0.01453    0.54927    0.75714    1.000
    N831     N        0.01429    0.55135    0.80225    1.000
    Si832    Si       0.08028    0.59023    0.75401    1.000
    Si833    Si       0.05591    0.54266    0.81484    1.000
    Si834    Si       0.11659    0.57881    0.81434    1.000
    N835     N        0.11792    0.56523    0.85466    1.000
    Si836    Si       0.21845    0.58284    0.81447    1.000
    N837     N        0.21192    0.56447    0.77428    1.000
    Si838    Si       0.16995    0.56131    0.76315    1.000
    N839     N        0.14194    0.55102    0.79371    1.000
    N840     N        0.23107    0.54619    0.83844    1.000
    Si841    Si       0.03318    0.59057    0.87363    1.000
    N842     N        0.02982    0.57098    0.91344    1.000
    Si843    Si       0.10814    0.57071    0.95294    1.000
    N844     N        0.07144    0.54991    0.96567    1.000
    Si845    Si       0.00118    0.58982    0.93975    1.000
    N846     N        0.99115    0.57685    0.97864    1.000
    Si847    Si       0.14661    0.57199    0.88494    1.000
    N848     N        0.12892    0.55339    0.91937    1.000
    N849     N        0.18333    0.55084    0.88879    1.000
    N850     N        0.13482    0.56808    0.98751    1.000
    Si851    Si       0.17692    0.58175    0.97954    1.000
    N852     N        0.19224    0.54546    0.95760    1.000
    Si853    Si       0.22467    0.56043    0.87901    1.000
    N854     N        0.03755    0.61976    0.02674    1.000
    Si855    Si       0.06955    0.62079    0.05648    1.000
    Si856    Si       0.99687    0.63826    0.09402    1.000
    N857     N        0.10704    0.61305    0.03904    1.000
    N858     N        0.99304    0.59964    0.07433    1.000
    N859     N        0.02902    0.62653    0.12177    1.000
    N860     N        0.03600    0.62098    0.19002    1.000
    Si861    Si       0.06871    0.62653    0.22114    1.000
    Si862    Si       0.05000    0.64787    0.15562    1.000
    Si863    Si       0.99441    0.62481    0.20276    1.000
    N864     N        0.09879    0.64962    0.20018    1.000
    Si865    Si       0.21393    0.64319    0.22319    1.000
    Si866    Si       0.23263    0.61060    0.16690    1.000
    Si867    Si       0.11791    0.64019    0.16063    1.000
    N868     N        0.20618    0.60236    0.19923    1.000
    N869     N        0.12829    0.59803    0.15751    1.000
    N870     N        0.21818    0.63230    0.12972    1.000
    N871     N        0.98592    0.61097    0.24383    1.000
    N872     N        0.08712    0.65223    0.13247    1.000
    N873     N        0.17037    0.65667    0.22648    1.000
    N874     N        0.22609    0.59909    0.07422    1.000
    N875     N        0.07413    0.61977    0.32128    1.000
    Si876    Si       0.01453    0.62012    0.27594    1.000
    N877     N        0.04942    0.63657    0.25836    1.000
    Si878    Si       0.08790    0.63931    0.35714    1.000
    Si879    Si       0.07910    0.65079    0.28938    1.000
    N880     N        0.99378    0.64887    0.30057    1.000
    N881     N        0.22641    0.61930    0.25932    1.000
    N882     N        0.15159    0.61799    0.35524    1.000
    Si883    Si       0.20755    0.62781    0.29729    1.000
    N884     N        0.16918    0.64888    0.29765    1.000
    Si885    Si       0.22626    0.62005    0.49501    1.000
    Si886    Si       0.01050    0.60280    0.43706    1.000
    N887     N        0.09601    0.60915    0.39151    1.000
    N888     N        0.02236    0.64355    0.43203    1.000
    N889     N        0.08715    0.63858    0.45829    1.000
    Si890    Si       0.06525    0.63440    0.42149    1.000
    Si891    Si       0.23863    0.62830    0.36533    1.000
    N892     N        0.15007    0.63007    0.48540    1.000
    Si893    Si       0.13896    0.61447    0.39745    1.000
    N894     N        0.21884    0.64624    0.46313    1.000
    N895     N        0.21745    0.65232    0.39281    1.000
    N896     N        0.14589    0.65178    0.41695    1.000
    Si897    Si       0.12735    0.65540    0.45810    1.000
    N898     N        0.09054    0.62237    0.60485    1.000
    N899     N        0.03123    0.63924    0.51164    1.000
    N900     N        0.09769    0.64473    0.53190    1.000
    Si901    Si       0.99820    0.62757    0.59599    1.000
    Si902    Si       0.10816    0.61499    0.56387    1.000
    Si903    Si       0.00383    0.60573    0.51698    1.000
    Si904    Si       0.07157    0.63177    0.49929    1.000
    N905     N        0.21185    0.63768    0.53227    1.000
    N906     N        0.15366    0.61401    0.56129    1.000
    Si907    Si       0.16927    0.63371    0.52432    1.000
    N908     N        0.16975    0.62572    0.61944    1.000
    Si909    Si       0.07309    0.62909    0.69672    1.000
    N910     N        0.02889    0.63052    0.71034    1.000
    N911     N        0.10216    0.60531    0.71796    1.000
    Si912    Si       0.99706    0.63037    0.67872    1.000
    N913     N        0.00123    0.64864    0.63924    1.000
    N914     N        0.06276    0.60138    0.66582    1.000
    N915     N        0.16898    0.61184    0.68917    1.000
    N916     N        0.22652    0.61456    0.64792    1.000
    Si917    Si       0.15970    0.64094    0.65842    1.000
    Si918    Si       0.14172    0.62114    0.72317    1.000
    Si919    Si       0.16459    0.65437    0.58356    1.000
    N920     N        0.06630    0.62986    0.76782    1.000
    Si921    Si       0.02560    0.63893    0.75321    1.000
    N922     N        0.99422    0.62008    0.77627    1.000
    N923     N        0.00106    0.60447    0.84647    1.000
    Si924    Si       0.08845    0.65150    0.79810    1.000
    N925     N        0.11968    0.62208    0.80707    1.000
    Si926    Si       0.16125    0.62642    0.79227    1.000
    N927     N        0.18350    0.60543    0.82481    1.000
    N928     N        0.16188    0.60483    0.75564    1.000
    Si929    Si       0.18974    0.62661    0.86402    1.000
    N930     N        0.05248    0.62859    0.88550    1.000
    N931     N        0.02721    0.62364    0.95319    1.000
    Si932    Si       0.06154    0.63111    0.92867    1.000
    N933     N        0.09994    0.61178    0.93946    1.000
    Si934    Si       0.01500    0.63372    0.99347    1.000
    Si935    Si       0.13987    0.63423    0.92666    1.000
    N936     N        0.22267    0.64928    0.99163    1.000
    N937     N        0.21313    0.65219    0.92021    1.000
    N938     N        0.15527    0.61526    0.89044    1.000
    N939     N        0.16937    0.61971    0.95955    1.000
    N940     N        0.22440    0.60383    0.87542    1.000
    Si941    Si       0.24081    0.62140    0.91384    1.000
    Si942    Si       0.24063    0.61039    0.99167    1.000
    Si943    Si       0.03505    0.67845    0.04070    1.000
    Si944    Si       0.09075    0.67768    0.09808    1.000
    N945     N        0.06783    0.66279    0.06350    1.000
    N946     N        0.99817    0.66558    0.06139    1.000
    N947     N        0.13322    0.71491    0.21512    1.000
    N948     N        0.13163    0.69185    0.08762    1.000
    Si949    Si       0.22872    0.69812    0.08863    1.000
    N950     N        0.23131    0.66411    0.06360    1.000
    N951     N        0.19807    0.69790    0.12041    1.000
    Si952    Si       0.10088    0.68581    0.22567    1.000
    N953     N        0.02999    0.68523    0.15953    1.000
    N954     N        0.06164    0.69974    0.22077    1.000
    Si955    Si       0.15537    0.69629    0.12419    1.000
    N956     N        0.14913    0.66972    0.15758    1.000
    Si957    Si       0.16193    0.68674    0.19539    1.000
    Si958    Si       0.22165    0.67466    0.14976    1.000
    N959     N        0.20230    0.70507    0.18416    1.000
    N960     N        0.22968    0.68136    0.24212    1.000
    N961     N        0.05770    0.68685    0.30227    1.000
    Si962    Si       0.01713    0.68724    0.29084    1.000
    N963     N        0.00098    0.70034    0.25341    1.000
    Si964    Si       0.08968    0.70893    0.32459    1.000
    N965     N        0.99535    0.70896    0.32379    1.000
    N966     N        0.10995    0.67013    0.33597    1.000
    N967     N        0.11038    0.66792    0.26456    1.000
    N968     N        0.17271    0.68740    0.35810    1.000
    Si969    Si       0.15362    0.66989    0.26328    1.000
    N970     N        0.17119    0.70861    0.27144    1.000
    N971     N        0.22629    0.71053    0.30800    1.000
    Si972    Si       0.15042    0.65876    0.33597    1.000
    Si973    Si       0.21260    0.71193    0.26707    1.000
    Si974    Si       0.22831    0.67281    0.43182    1.000
    N975     N        0.07170    0.66546    0.38908    1.000
    Si976    Si       0.06324    0.70753    0.39603    1.000
    Si977    Si       0.99887    0.67618    0.41662    1.000
    N978     N        0.02076    0.71197    0.40409    1.000
    Si979    Si       0.17890    0.67409    0.39819    1.000
    N980     N        0.12363    0.69176    0.48230    1.000
    N981     N        0.19149    0.69875    0.43069    1.000
    Si982    Si       0.01624    0.66926    0.53817    1.000
    N983     N        0.03770    0.70779    0.52512    1.000
    N984     N        0.01942    0.66332    0.58099    1.000
    Si985    Si       0.02222    0.68166    0.62066    1.000
    Si986    Si       0.11969    0.68393    0.52574    1.000
    N987     N        0.13027    0.67666    0.60151    1.000
    N988     N        0.15811    0.67326    0.54287    1.000
    N989     N        0.20635    0.67245    0.59118    1.000
    Si990    Si       0.23071    0.66940    0.55311    1.000
    N991     N        0.11907    0.65521    0.66378    1.000
    Si992    Si       0.09901    0.66035    0.62535    1.000
    N993     N        0.06281    0.68425    0.63085    1.000
    N994     N        0.00889    0.70090    0.69032    1.000
    Si995    Si       0.03922    0.69489    0.72167    1.000
    N996     N        0.07392    0.67328    0.70778    1.000
    Si997    Si       0.21609    0.65210    0.62969    1.000
    Si998    Si       0.11414    0.68390    0.69749    1.000
    N999     N        0.19258    0.67202    0.66275    1.000
    Si1000   Si       0.20844    0.70060    0.69120    1.000
    N1001    N        0.14172    0.66436    0.72629    1.000
    N1002    N        0.20807    0.68848    0.73260    1.000
    N1003    N        0.22433    0.71352    0.54691    1.000
    Si1004   Si       0.02494    0.68988    0.80302    1.000
    N1005    N        0.02590    0.68123    0.76099    1.000
    N1006    N        0.10352    0.69427    0.79503    1.000
    Si1007   Si       0.06066    0.66492    0.86475    1.000
    N1008    N        0.05401    0.66282    0.82220    1.000
    N1009    N        0.10199    0.67903    0.86759    1.000
    N1010    N        0.99196    0.67855    0.82909    1.000
    Si1011   Si       0.21956    0.68723    0.89438    1.000
    Si1012   Si       0.11925    0.70363    0.83497    1.000
    N1013    N        0.17656    0.66566    0.79015    1.000
    Si1014   Si       0.19487    0.69376    0.81986    1.000
    N1015    N        0.20499    0.66919    0.85651    1.000
    Si1016   Si       0.16910    0.68702    0.75206    1.000
    N1017    N        0.18873    0.69800    0.96456    1.000
    N1018    N        0.03065    0.69263    0.88089    1.000
    Si1019   Si       0.10218    0.69368    0.91009    1.000
    N1020    N        0.07137    0.67299    0.93260    1.000
    Si1021   Si       0.05298    0.69905    0.96352    1.000
    N1022    N        0.14083    0.67923    0.92400    1.000
    Si1023   Si       0.19398    0.65600    0.96021    1.000
    N1024    N        0.03244    0.67605    0.99609    1.000
    Si1025   Si       0.06398    0.73804    0.07199    1.000
    N1026    N        0.09777    0.73886    0.04586    1.000
    N1027    N        0.03139    0.72096    0.04764    1.000
    N1028    N        0.07632    0.71933    0.10785    1.000
    Si1029   Si       0.11297    0.74028    0.00499    1.000
    N1030    N        0.15779    0.75920    0.07783    1.000
    N1031    N        0.22455    0.73357    0.06385    1.000
    Si1032   Si       0.13726    0.72433    0.06106    1.000
    N1033    N        0.15229    0.72360    0.01753    1.000
    Si1034   Si       0.19855    0.76413    0.08214    1.000
    N1035    N        0.21559    0.75714    0.99868    1.000
    N1036    N        0.07330    0.74672    0.17317    1.000
    N1037    N        0.01179    0.74362    0.20039    1.000
    Si1038   Si       0.09823    0.74390    0.13682    1.000
    N1039    N        0.05776    0.76109    0.23972    1.000
    Si1040   Si       0.01983    0.74090    0.24275    1.000
    Si1041   Si       0.04435    0.71759    0.18681    1.000
    Si1042   Si       0.98904    0.73051    0.03992    1.000
    N1043    N        0.23872    0.75225    0.16896    1.000
    Si1044   Si       0.23720    0.72456    0.20470    1.000
    N1045    N        0.19658    0.76915    0.12531    1.000
    N1046    N        0.14508    0.73656    0.14136    1.000
    Si1047   Si       0.14364    0.75729    0.22063    1.000
    Si1048   Si       0.19164    0.74291    0.16200    1.000
    N1049    N        0.17925    0.77026    0.19470    1.000
    N1050    N        0.04483    0.75877    0.30810    1.000
    Si1051   Si       0.07561    0.76289    0.27861    1.000
    N1052    N        0.10619    0.73485    0.29490    1.000
    Si1053   Si       0.99835    0.75119    0.31243    1.000
    N1054    N        0.07706    0.72890    0.36057    1.000
    N1055    N        0.99752    0.76812    0.26849    1.000
    Si1056   Si       0.05654    0.76633    0.34831    1.000
    Si1057   Si       0.14834    0.73884    0.29107    1.000
    N1058    N        0.16852    0.74744    0.32679    1.000
    Si1059   Si       0.19815    0.71706    0.33943    1.000
    N1060    N        0.15263    0.76937    0.26052    1.000
    N1061    N        0.07625    0.74869    0.48537    1.000
    N1062    N        0.00264    0.73855    0.47459    1.000
    Si1063   Si       0.04440    0.74238    0.45610    1.000
    Si1064   Si       0.00865    0.75458    0.39837    1.000
    Si1065   Si       0.10793    0.72666    0.46287    1.000
    N1066    N        0.07672    0.71782    0.43492    1.000
    N1067    N        0.14310    0.75111    0.45812    1.000
    N1068    N        0.22167    0.72846    0.37259    1.000
    Si1069   Si       0.23036    0.76796    0.38807    1.000
    Si1070   Si       0.18392    0.73737    0.44673    1.000
    N1071    N        0.20907    0.74454    0.48095    1.000
    N1072    N        0.22786    0.74555    0.24284    1.000
    Si1073   Si       0.06481    0.73403    0.54637    1.000
    N1074    N        0.04881    0.73169    0.58621    1.000
    Si1075   Si       0.00646    0.74586    0.59117    1.000
    Si1076   Si       0.99746    0.72431    0.51696    1.000
    N1077    N        0.11077    0.73915    0.61508    1.000
    N1078    N        0.99006    0.75009    0.55203    1.000
    N1079    N        0.10447    0.71868    0.54686    1.000
    N1080    N        0.16943    0.73893    0.57960    1.000
    Si1081   Si       0.13071    0.71834    0.58407    1.000
    Si1082   Si       0.20683    0.71761    0.58735    1.000
    Si1083   Si       0.23802    0.73040    0.51046    1.000
    N1084    N        0.00028    0.72003    0.62451    1.000
    N1085    N        0.11436    0.72803    0.69335    1.000
    Si1086   Si       0.07047    0.72546    0.62330    1.000
    Si1087   Si       0.00758    0.73487    0.66511    1.000
    N1088    N        0.05308    0.73604    0.72331    1.000
    N1089    N        0.04956    0.74980    0.65673    1.000
    Si1090   Si       0.07795    0.75199    0.68919    1.000
    N1091    N        0.18716    0.73750    0.68587    1.000
    Si1092   Si       0.15215    0.74579    0.70905    1.000
    Si1093   Si       0.19743    0.76190    0.65140    1.000
    N1094    N        0.22137    0.73548    0.62451    1.000
    N1095    N        0.15388    0.72819    0.75044    1.000
    N1096    N        0.03753    0.73224    0.80593    1.000
    N1097    N        0.09738    0.74140    0.83911    1.000
    Si1098   Si       0.07933    0.73143    0.79944    1.000
    N1099    N        0.08986    0.76264    0.77237    1.000
    Si1100   Si       0.16644    0.76227    0.83520    1.000
    N1101    N        0.21262    0.76214    0.84107    1.000
    Si1102   Si       0.13242    0.76354    0.76391    1.000
    Si1103   Si       0.16648    0.71413    0.92981    1.000
    Si1104   Si       0.17999    0.73388    0.98758    1.000
    N1105    N        0.16059    0.71657    0.83257    1.000
    Si1106   Si       0.10351    0.76123    0.87625    1.000
    N1107    N        0.08418    0.73342    0.90388    1.000
    N1108    N        0.02746    0.72889    0.94395    1.000
    N1109    N        0.01876    0.76294    0.88227    1.000
    Si1110   Si       0.04048    0.73011    0.90162    1.000
    Si1111   Si       0.99371    0.75366    0.95612    1.000
    N1112    N        0.08898    0.71797    0.97951    1.000
    Si1113   Si       0.21573    0.76303    0.88586    1.000
    N1114    N        0.15844    0.75235    0.95339    1.000
    N1115    N        0.19726    0.72525    0.90003    1.000
    N1116    N        0.22509    0.71482    0.79519    1.000
    Si1117   Si       0.08139    0.80439    0.09317    1.000
    Si1118   Si       0.10301    0.81861    0.01527    1.000
    Si1119   Si       0.00807    0.78248    0.08978    1.000
    N1120    N        0.10753    0.81908    0.05958    1.000
    N1121    N        0.05020    0.77655    0.08378    1.000
    N1122    N        0.99570    0.81990    0.07039    1.000
    N1123    N        0.06087    0.82812    0.01175    1.000
    N1124    N        0.10614    0.78109    0.11820    1.000
    N1125    N        0.22352    0.79893    0.07160    1.000
    N1126    N        0.15531    0.82014    0.10923    1.000
    Si1127   Si       0.15030    0.77653    0.11652    1.000
    N1128    N        0.23897    0.82580    0.01413    1.000
    Si1129   Si       0.13854    0.82821    0.21491    1.000
    N1130    N        0.00550    0.79968    0.13017    1.000
    N1131    N        0.04758    0.81110    0.19042    1.000
    Si1132   Si       0.07375    0.77907    0.20263    1.000
    N1133    N        0.99220    0.82803    0.23467    1.000
    Si1134   Si       0.03190    0.82986    0.15234    1.000
    N1135    N        0.11650    0.79013    0.20847    1.000
    N1136    N        0.22924    0.81428    0.22500    1.000
    Si1137   Si       0.20098    0.80739    0.19227    1.000
    N1138    N        0.23122    0.81867    0.16061    1.000
    N1139    N        0.08808    0.79572    0.35314    1.000
    N1140    N        0.09059    0.80295    0.28055    1.000
    Si1141   Si       0.10641    0.81635    0.31879    1.000
    N1142    N        0.01395    0.77491    0.36013    1.000
    N1143    N        0.21476    0.80136    0.29015    1.000
    N1144    N        0.14962    0.80702    0.31608    1.000
    Si1145   Si       0.17067    0.80315    0.27739    1.000
    Si1146   Si       0.16895    0.78479    0.34872    1.000
    Si1147   Si       0.22739    0.81967    0.32834    1.000
    N1148    N        0.21062    0.79114    0.35724    1.000
    Si1149   Si       0.23546    0.77279    0.46290    1.000
    Si1150   Si       0.05978    0.80700    0.43692    1.000
    N1151    N        0.10210    0.80116    0.43081    1.000
    N1152    N        0.05108    0.81323    0.48124    1.000
    N1153    N        0.03688    0.77332    0.42556    1.000
    Si1154   Si       0.11145    0.80735    0.38917    1.000
    N1155    N        0.23275    0.81559    0.47438    1.000
    N1156    N        0.16492    0.82063    0.45584    1.000
    Si1157   Si       0.13232    0.79372    0.46303    1.000
    Si1158   Si       0.18413    0.80890    0.41771    1.000
    N1159    N        0.15420    0.79706    0.38853    1.000
    N1160    N        0.20846    0.77196    0.42660    1.000
    N1161    N        0.01975    0.78824    0.60498    1.000
    Si1162   Si       0.04076    0.80338    0.56768    1.000
    N1163    N        0.00647    0.81722    0.54434    1.000
    Si1164   Si       0.07616    0.78753    0.50349    1.000
    N1165    N        0.06455    0.77698    0.54393    1.000
    N1166    N        0.16237    0.77943    0.63141    1.000
    N1167    N        0.11701    0.80336    0.50345    1.000
    N1168    N        0.20270    0.80706    0.58611    1.000
    N1169    N        0.12936    0.80200    0.58024    1.000
    Si1170   Si       0.16845    0.78065    0.58706    1.000
    Si1171   Si       0.13867    0.82052    0.53726    1.000
    Si1172   Si       0.23214    0.80899    0.61675    1.000
    N1173    N        0.02170    0.82059    0.66516    1.000
    Si1174   Si       0.04487    0.79116    0.64094    1.000
    N1175    N        0.08585    0.80068    0.63890    1.000
    N1176    N        0.07707    0.79179    0.70574    1.000
    Si1177   Si       0.08949    0.82107    0.67704    1.000
    Si1178   Si       0.06033    0.77278    0.74373    1.000
    N1179    N        0.21940    0.79826    0.65788    1.000
    Si1180   Si       0.12187    0.78112    0.62222    1.000
    Si1181   Si       0.15400    0.82609    0.72081    1.000
    N1182    N        0.14752    0.78381    0.72718    1.000
    N1183    N        0.18042    0.82747    0.52557    1.000
    N1184    N        0.13200    0.83125    0.68125    1.000
    N1185    N        0.02385    0.78689    0.76436    1.000
    N1186    N        0.04113    0.80482    0.83049    1.000
    Si1187   Si       0.00301    0.82238    0.75088    1.000
    Si1188   Si       0.02167    0.77325    0.80608    1.000
    Si1189   Si       0.14319    0.82244    0.79474    1.000
    N1190    N        0.15345    0.78032    0.79886    1.000
    N1191    N        0.13148    0.81071    0.92943    1.000
    Si1192   Si       0.03673    0.80184    0.87350    1.000
    N1193    N        0.07871    0.79660    0.88509    1.000
    Si1194   Si       0.21914    0.79880    0.98619    1.000
    Si1195   Si       0.23096    0.82156    0.92006    1.000
    Si1196   Si       0.14578    0.79161    0.96356    1.000
    N1197    N        0.17944    0.81472    0.98122    1.000
    Si1198   Si       0.15872    0.80857    0.89609    1.000
    N1199    N        0.19887    0.79791    0.90373    1.000
    N1200    N        0.14494    0.77413    0.87073    1.000
    N1201    N        0.11642    0.78259    0.99653    1.000
    N1202    N        0.00587    0.88085    0.02669    1.000
    N1203    N        0.06275    0.83489    0.11915    1.000
    Si1204   Si       0.08633    0.87124    0.11911    1.000
    Si1205   Si       0.03634    0.86264    0.00211    1.000
    N1206    N        0.11736    0.87577    0.08950    1.000
    Si1207   Si       0.14048    0.84222    0.07448    1.000
    N1208    N        0.17299    0.84355    0.04440    1.000
    N1209    N        0.23016    0.87130    0.06671    1.000
    Si1210   Si       0.16626    0.85053    0.00103    1.000
    Si1211   Si       0.21387    0.83521    0.05021    1.000
    Si1212   Si       0.08783    0.87329    0.18767    1.000
    Si1213   Si       0.03163    0.84188    0.22000    1.000
    N1214    N        0.04225    0.87136    0.18726    1.000
    N1215    N        0.10330    0.85321    0.22735    1.000
    N1216    N        0.99888    0.85940    0.14290    1.000
    N1217    N        0.11103    0.86024    0.15411    1.000
    N1218    N        0.16676    0.83358    0.18068    1.000
    N1219    N        0.16895    0.88578    0.12902    1.000
    N1220    N        0.22615    0.87891    0.24157    1.000
    Si1221   Si       0.15152    0.84854    0.14314    1.000
    Si1222   Si       0.08434    0.84185    0.26610    1.000
    N1223    N        0.09987    0.85662    0.30427    1.000
    N1224    N        0.04528    0.86052    0.25673    1.000
    N1225    N        0.01040    0.87768    0.36829    1.000
    N1226    N        0.21127    0.85686    0.34927    1.000
    Si1227   Si       0.18633    0.87223    0.25384    1.000
    N1228    N        0.16464    0.83393    0.24941    1.000
    N1229    N        0.05294    0.85035    0.43025    1.000
    Si1230   Si       0.03784    0.85521    0.47085    1.000
    Si1231   Si       0.08356    0.87323    0.41038    1.000
    N1232    N        0.99686    0.85696    0.48265    1.000
    N1233    N        0.06102    0.88122    0.49404    1.000
    N1234    N        0.10948    0.84894    0.38388    1.000
    Si1235   Si       0.20411    0.87465    0.38825    1.000
    Si1236   Si       0.19229    0.83749    0.48467    1.000
    N1237    N        0.21350    0.84143    0.41565    1.000
    N1238    N        0.21273    0.87495    0.47569    1.000
    Si1239   Si       0.23907    0.85230    0.44841    1.000
    Si1240   Si       0.21672    0.89032    0.32197    1.000
    N1241    N        0.18277    0.89111    0.29301    1.000
    Si1242   Si       0.03407    0.87343    0.58813    1.000
    N1243    N        0.06069    0.83908    0.58110    1.000
    Si1244   Si       0.99798    0.85695    0.52512    1.000
    Si1245   Si       0.10266    0.83923    0.58947    1.000
    N1246    N        0.99429    0.85933    0.60160    1.000
    Si1247   Si       0.17740    0.89279    0.70981    1.000
    N1248    N        0.12006    0.85721    0.55306    1.000
    N1249    N        0.19424    0.87650    0.57454    1.000
    Si1250   Si       0.20918    0.84045    0.55695    1.000
    Si1251   Si       0.21372    0.87779    0.61354    1.000
    Si1252   Si       0.21320    0.83622    0.67764    1.000
    N1253    N        0.07170    0.86028    0.67996    1.000
    Si1254   Si       0.02941    0.85527    0.69141    1.000
    N1255    N        0.03020    0.85369    0.73452    1.000
    N1256    N        0.18939    0.84999    0.71234    1.000
    Si1257   Si       0.14786    0.86017    0.65477    1.000
    N1258    N        0.11366    0.86430    0.62591    1.000
    N1259    N        0.19033    0.85543    0.64379    1.000
    N1260    N        0.00388    0.88911    0.68435    1.000
    N1261    N        0.04254    0.86647    0.80096    1.000
    Si1262   Si       0.05013    0.88384    0.75886    1.000
    Si1263   Si       0.06613    0.84046    0.82650    1.000
    N1264    N        0.07603    0.85871    0.86426    1.000
    Si1265   Si       0.01101    0.89045    0.82078    1.000
    N1266    N        0.10834    0.83312    0.81465    1.000
    Si1267   Si       0.13568    0.85846    0.83949    1.000
    N1268    N        0.21988    0.88101    0.85327    1.000
    N1269    N        0.17147    0.84481    0.81874    1.000
    Si1270   Si       0.20858    0.86402    0.81658    1.000
    N1271    N        0.13846    0.84580    0.75722    1.000
    Si1272   Si       0.12968    0.88760    0.77306    1.000
    N1273    N        0.01398    0.85299    0.96457    1.000
    Si1274   Si       0.10153    0.87279    0.96522    1.000
    Si1275   Si       0.03531    0.85293    0.92770    1.000
    N1276    N        0.07975    0.85127    0.93101    1.000
    Si1277   Si       0.99251    0.86916    0.88670    1.000
    N1278    N        0.24127    0.84953    0.79102    1.000
    N1279    N        0.06937    0.88971    0.98984    1.000
    N1280    N        0.18224    0.88810    0.98141    1.000
    N1281    N        0.22343    0.86569    0.92524    1.000
    N1282    N        0.14276    0.84477    0.87894    1.000
    N1283    N        0.12398    0.85057    0.99321    1.000
    Si1284   Si       0.10074    0.83489    0.89849    1.000
    N1285    N        0.01390    0.83257    0.89500    1.000
    Si1286   Si       0.04350    0.93864    0.11133    1.000
    Si1287   Si       0.99580    0.92185    0.01392    1.000
    N1288    N        0.17133    0.91527    0.06230    1.000
    Si1289   Si       0.14705    0.90854    0.09688    1.000
    Si1290   Si       0.21530    0.91220    0.06991    1.000
    N1291    N        0.22123    0.92584    0.11206    1.000
    N1292    N        0.12908    0.94471    0.11134    1.000
    N1293    N        0.24047    0.93366    0.03968    1.000
    N1294    N        0.17029    0.93837    0.16996    1.000
    N1295    N        0.00559    0.91978    0.12003    1.000
    N1296    N        0.06470    0.90568    0.12986    1.000
    N1297    N        0.09793    0.91209    0.20053    1.000
    Si1298   Si       0.02193    0.90065    0.15818    1.000
    N1299    N        0.03734    0.94053    0.17650    1.000
    Si1300   Si       0.19794    0.91083    0.14744    1.000
    N1301    N        0.21273    0.94142    0.22224    1.000
    Si1302   Si       0.17162    0.93744    0.21344    1.000
    N1303    N        0.22721    0.89245    0.17305    1.000
    Si1304   Si       0.11753    0.89502    0.23584    1.000
    N1305    N        0.15985    0.89964    0.22979    1.000
    Si1306   Si       0.07571    0.94727    0.19214    1.000
    Si1307   Si       0.03662    0.90985    0.35838    1.000
    N1308    N        0.03138    0.94025    0.26723    1.000
    Si1309   Si       0.09478    0.90009    0.30993    1.000
    N1310    N        0.05139    0.89996    0.31531    1.000
    Si1311   Si       0.03291    0.89584    0.27703    1.000
    N1312    N        0.11010    0.91490    0.27189    1.000
    N1313    N        0.01845    0.94698    0.36497    1.000
    N1314    N        0.12236    0.91265    0.33847    1.000
    Si1315   Si       0.16337    0.91837    0.32159    1.000
    N1316    N        0.19673    0.92233    0.34820    1.000
    Si1317   Si       0.22078    0.91443    0.49548    1.000
    N1318    N        0.23796    0.90055    0.39706    1.000
    Si1319   Si       0.10296    0.93483    0.37047    1.000
    N1320    N        0.07109    0.90603    0.38536    1.000
    Si1321   Si       0.09020    0.90801    0.47734    1.000
    N1322    N        0.10956    0.89415    0.44160    1.000
    Si1323   Si       0.22361    0.93685    0.37906    1.000
    N1324    N        0.22829    0.94920    0.46859    1.000
    N1325    N        0.16403    0.93998    0.45871    1.000
    N1326    N        0.16978    0.89399    0.40583    1.000
    Si1327   Si       0.14238    0.91831    0.42896    1.000
    Si1328   Si       0.05400    0.90311    0.53006    1.000
    N1329    N        0.07813    0.90853    0.56525    1.000
    Si1330   Si       0.00154    0.93549    0.54662    1.000
    Si1331   Si       0.06116    0.93438    0.59692    1.000
    N1332    N        0.03613    0.93996    0.51616    1.000
    Si1333   Si       0.11630    0.89949    0.55089    1.000
    N1334    N        0.11801    0.91225    0.50910    1.000
    Si1335   Si       0.18762    0.91698    0.56324    1.000
    N1336    N        0.14366    0.92442    0.57342    1.000
    N1337    N        0.18670    0.92470    0.52078    1.000
    Si1338   Si       0.15194    0.94041    0.50105    1.000
    N1339    N        0.22418    0.91602    0.63033    1.000
    N1340    N        0.04726    0.89954    0.62317    1.000
    Si1341   Si       0.01494    0.91524    0.65179    1.000
    N1342    N        0.09187    0.92805    0.66673    1.000
    Si1343   Si       0.08380    0.88815    0.64909    1.000
    N1344    N        0.14809    0.89851    0.67674    1.000
    Si1345   Si       0.13471    0.94002    0.67426    1.000
    Si1346   Si       0.22955    0.94013    0.66621    1.000
    N1347    N        0.21278    0.91290    0.69887    1.000
    N1348    N        0.01679    0.89082    0.54915    1.000
    N1349    N        0.04217    0.91476    0.84238    1.000
    N1350    N        0.03223    0.92310    0.75964    1.000
    Si1351   Si       0.99400    0.94318    0.76361    1.000
    N1352    N        0.09065    0.90222    0.76090    1.000
    Si1353   Si       0.07023    0.94851    0.76575    1.000
    N1354    N        0.21190    0.90389    0.79638    1.000
    Si1355   Si       0.20206    0.92749    0.83443    1.000
    Si1356   Si       0.18930    0.93064    0.76955    1.000
    Si1357   Si       0.12926    0.92721    0.84835    1.000
    N1358    N        0.13122    0.89651    0.81771    1.000
    N1359    N        0.17073    0.92969    0.86509    1.000
    N1360    N        0.16012    0.90755    0.74852    1.000
    N1361    N        0.10109    0.91424    0.88062    1.000
    Si1362   Si       0.05561    0.92886    0.97664    1.000
    Si1363   Si       0.99923    0.91465    0.93271    1.000
    N1364    N        0.01158    0.92383    0.97421    1.000
    Si1365   Si       0.10837    0.93094    0.92051    1.000
    Si1366   Si       0.06170    0.89740    0.87583    1.000
    N1367    N        0.06981    0.94275    0.93759    1.000
    Si1368   Si       0.16081    0.92153    0.96545    1.000
    Si1369   Si       0.21516    0.89647    0.95338    1.000
    N1370    N        0.12653    0.90340    0.94779    1.000
    N1371    N        0.19205    0.92983    0.93520    1.000
    N1372    N        0.02832    0.89158    0.90364    1.000
    Si1373   Si       0.04697    0.97253    0.04285    1.000
    Si1374   Si       0.10371    0.96727    0.08392    1.000
    N1375    N        0.06527    0.96293    0.00377    1.000
    N1376    N        0.00411    0.95902    0.03659    1.000
    N1377    N        0.09679    0.00682    0.10089    1.000
    N1378    N        0.06553    0.94929    0.07505    1.000
    Si1379   Si       0.12771    0.98567    0.00441    1.000
    N1380    N        0.12900    0.97519    0.04816    1.000
    N1381    N        0.19603    0.97987    0.05051    1.000
    Si1382   Si       0.16481    0.94987    0.03706    1.000
    Si1383   Si       0.23981    0.97766    0.04639    1.000
    Si1384   Si       0.10480    0.00152    0.21120    1.000
    N1385    N        0.03507    0.98145    0.12569    1.000
    Si1386   Si       0.01433    0.97633    0.16383    1.000
    N1387    N        0.07720    0.97125    0.22925    1.000
    N1388    N        0.10467    0.97680    0.17473    1.000
    N1389    N        0.01586    0.00566    0.19491    1.000
    N1390    N        0.16078    0.00049    0.14393    1.000
    N1391    N        0.20993    0.00122    0.23993    1.000
    Si1392   Si       0.13901    0.96165    0.15073    1.000
    N1393    N        0.23301    0.97913    0.15415    1.000
    N1394    N        0.14715    0.96662    0.23776    1.000
    N1395    N        0.15175    0.95006    0.99651    1.000
    Si1396   Si       0.16769    0.00438    0.24552    1.000
    N1397    N        0.08186    0.97007    0.35523    1.000
    N1398    N        0.09818    0.98188    0.29086    1.000
    Si1399   Si       0.06091    0.97100    0.26862    1.000
    Si1400   Si       0.10294    0.99927    0.33112    1.000
    N1401    N        0.03957    0.00852    0.27180    1.000
    Si1402   Si       0.17291    0.99504    0.31938    1.000
    N1403    N        0.15882    0.95736    0.30452    1.000
    N1404    N        0.21138    0.99874    0.33896    1.000
    Si1405   Si       0.12860    0.95417    0.27457    1.000
    N1406    N        0.14227    0.00639    0.34774    1.000
    Si1407   Si       0.04467    0.98113    0.37241    1.000
    N1408    N        0.05732    0.99073    0.41333    1.000
    Si1409   Si       0.09103    0.97430    0.43276    1.000
    N1410    N        0.01909    0.98700    0.47115    1.000
    N1411    N        0.08020    0.95092    0.46939    1.000
    Si1412   Si       0.05338    0.97353    0.49480    1.000
    N1413    N        0.20616    0.96791    0.40297    1.000
    Si1414   Si       0.19650    0.96520    0.44483    1.000
    Si1415   Si       0.21581    0.00616    0.38156    1.000
    N1416    N        0.11816    0.94915    0.41008    1.000
    N1417    N        0.09231    0.96606    0.60192    1.000
    Si1418   Si       0.01425    0.99313    0.59427    1.000
    N1419    N        0.02568    0.95370    0.57954    1.000
    N1420    N        0.13956    0.98038    0.51103    1.000
    Si1421   Si       0.19865    0.99390    0.57716    1.000
    Si1422   Si       0.13523    0.96027    0.59717    1.000
    N1423    N        0.15407    0.99410    0.57485    1.000
    N1424    N        0.20696    0.95083    0.57997    1.000
    Si1425   Si       0.03876    0.00181    0.73317    1.000
    Si1426   Si       0.08191    0.00087    0.62617    1.000
    Si1427   Si       0.01109    0.99471    0.66061    1.000
    Si1428   Si       0.06885    0.96338    0.68151    1.000
    N1429    N        0.06967    0.97029    0.72551    1.000
    N1430    N        0.09470    0.99684    0.66814    1.000
    N1431    N        0.02921    0.95332    0.66724    1.000
    N1432    N        0.03920    0.00354    0.62696    1.000
    N1433    N        0.15106    0.95966    0.63756    1.000
    Si1434   Si       0.17557    0.99224    0.64859    1.000
    Si1435   Si       0.11476    0.98327    0.72938    1.000
    N1436    N        0.20829    0.97707    0.67464    1.000
    N1437    N        0.14781    0.96695    0.70719    1.000
    Si1438   Si       0.18840    0.98254    0.71295    1.000
    N1439    N        0.06543    0.00946    0.51629    1.000
    N1440    N        0.21883    0.01062    0.54475    1.000
    N1441    N        0.05322    0.97029    0.80365    1.000
    Si1442   Si       0.09556    0.99873    0.86287    1.000
    Si1443   Si       0.03702    0.95806    0.84150    1.000
    N1444    N        0.00099    0.98734    0.75226    1.000
    N1445    N        0.99212    0.95894    0.84692    1.000
    N1446    N        0.11409    0.96541    0.76954    1.000
    N1447    N        0.12056    0.96894    0.84028    1.000
    Si1448   Si       0.19829    0.99033    0.78508    1.000
    Si1449   Si       0.13935    0.97783    0.80125    1.000
    N1450    N        0.17863    0.95614    0.80465    1.000
    N1451    N        0.20394    0.96535    0.75015    1.000
    N1452    N        0.05824    0.97518    0.87431    1.000
    Si1453   Si       0.04226    0.96882    0.91427    1.000
    Si1454   Si       0.06504    0.99623    0.97632    1.000
    N1455    N        0.10887    0.99889    0.96797    1.000
    N1456    N        0.04284    0.00289    0.93890    1.000
    N1457    N        0.00167    0.95551    0.91561    1.000
    N1458    N        0.13601    0.96285    0.91634    1.000
    Si1459   Si       0.17465    0.95278    0.90290    1.000
    N1460    N        0.22220    0.99184    0.96472    1.000
    N1461    N        0.19983    0.98665    0.88814    1.000
    Si1462   Si       0.12876    0.00343    0.93117    1.000
    N1463    N        0.27873    0.04966    0.07752    1.000
    Si1464   Si       0.29509    0.02977    0.04360    1.000
    Si1465   Si       0.26104    0.02192    0.10465    1.000
    N1466    N        0.31669    0.06010    0.02191    1.000
    N1467    N        0.26307    0.00869    0.02192    1.000
    N1468    N        0.36968    0.02062    0.08552    1.000
    Si1469   Si       0.40122    0.03434    0.05762    1.000
    N1470    N        0.38118    0.03072    0.01675    1.000
    Si1471   Si       0.47672    0.02495    0.03949    1.000
    N1472    N        0.43750    0.01401    0.05692    1.000
    N1473    N        0.46921    0.04410    0.99994    1.000
    Si1474   Si       0.30612    0.05092    0.15617    1.000
    N1475    N        0.30147    0.05182    0.19939    1.000
    N1476    N        0.28217    0.01724    0.14107    1.000
    N1477    N        0.34782    0.05947    0.14958    1.000
    Si1478   Si       0.30705    0.01255    0.22069    1.000
    N1479    N        0.35814    0.02030    0.21871    1.000
    N1480    N        0.24236    0.06104    0.23632    1.000
    N1481    N        0.41392    0.05213    0.12649    1.000
    Si1482   Si       0.48587    0.05661    0.17582    1.000
    Si1483   Si       0.42340    0.01522    0.15230    1.000
    N1484    N        0.42673    0.05268    0.24284    1.000
    Si1485   Si       0.37418    0.03533    0.12605    1.000
    N1486    N        0.44803    0.03381    0.18134    1.000
    Si1487   Si       0.35607    0.05959    0.99992    1.000
    Si1488   Si       0.28438    0.04508    0.29648    1.000
    N1489    N        0.29749    0.02085    0.26295    1.000
    N1490    N        0.31996    0.05760    0.31953    1.000
    Si1491   Si       0.32105    0.01470    0.33842    1.000
    Si1492   Si       0.34555    0.06523    0.35936    1.000
    N1493    N        0.41514    0.03122    0.33097    1.000
    N1494    N        0.47089    0.02352    0.29142    1.000
    Si1495   Si       0.45434    0.06073    0.27741    1.000
    Si1496   Si       0.38599    0.03764    0.24830    1.000
    Si1497   Si       0.29394    0.01860    0.41171    1.000
    N1498    N        0.32277    0.03035    0.38024    1.000
    N1499    N        0.29212    0.04248    0.44867    1.000
    Si1500   Si       0.35649    0.01709    0.41022    1.000
    N1501    N        0.25564    0.01572    0.39458    1.000
    N1502    N        0.43834    0.06749    0.43658    1.000
    Si1503   Si       0.37966    0.03910    0.48562    1.000
    Si1504   Si       0.46518    0.03401    0.43075    1.000
    N1505    N        0.37802    0.03639    0.44416    1.000
    N1506    N        0.44902    0.01614    0.39229    1.000
    N1507    N        0.38304    0.04730    0.38199    1.000
    N1508    N        0.47284    0.01340    0.46679    1.000
    Si1509   Si       0.32427    0.03819    0.54261    1.000
    N1510    N        0.28099    0.04182    0.53653    1.000
    N1511    N        0.26661    0.02457    0.61014    1.000
    N1512    N        0.34036    0.02276    0.50265    1.000
    Si1513   Si       0.25301    0.06509    0.59601    1.000
    Si1514   Si       0.43107    0.02947    0.54005    1.000
    N1515    N        0.46832    0.05152    0.53513    1.000
    N1516    N        0.40844    0.05723    0.56340    1.000
    Si1517   Si       0.41187    0.06129    0.60566    1.000
    N1518    N        0.41331    0.01787    0.50268    1.000
    N1519    N        0.24618    0.03014    0.68033    1.000
    Si1520   Si       0.28726    0.02220    0.69597    1.000
    N1521    N        0.30379    0.06143    0.68516    1.000
    N1522    N        0.28271    0.00791    0.73808    1.000
    N1523    N        0.25143    0.06434    0.74108    1.000
    Si1524   Si       0.46108    0.04886    0.70164    1.000
    N1525    N        0.47655    0.03037    0.74047    1.000
    N1526    N        0.43322    0.01523    0.69114    1.000
    N1527    N        0.37624    0.05207    0.69296    1.000
    Si1528   Si       0.39352    0.01866    0.67098    1.000
    N1529    N        0.39999    0.02521    0.62810    1.000
    N1530    N        0.28325    0.04949    0.80062    1.000
    N1531    N        0.33033    0.02231    0.85440    1.000
    Si1532   Si       0.26111    0.02977    0.76703    1.000
    Si1533   Si       0.25207    0.03943    0.83140    1.000
    N1534    N        0.34654    0.03000    0.78910    1.000
    Si1535   Si       0.33934    0.06293    0.86872    1.000
    N1536    N        0.26367    0.00990    0.86062    1.000
    N1537    N        0.37809    0.06849    0.88942    1.000
    Si1538   Si       0.45581    0.04667    0.83744    1.000
    Si1539   Si       0.37709    0.02486    0.75705    1.000
    N1540    N        0.39988    0.06453    0.75940    1.000
    N1541    N        0.46291    0.01367    0.80912    1.000
    N1542    N        0.34988    0.05697    0.95536    1.000
    N1543    N        0.27574    0.04801    0.95871    1.000
    Si1544   Si       0.31162    0.04784    0.93539    1.000
    Si1545   Si       0.25806    0.01468    0.98025    1.000
    N1546    N        0.31461    0.00540    0.91766    1.000
    N1547    N        0.44914    0.03619    0.87818    1.000
    Si1548   Si       0.45717    0.06303    0.91366    1.000
    N1549    N        0.42490    0.05254    0.94342    1.000
    N1550    N        0.47395    0.00774    0.93626    1.000
    Si1551   Si       0.44499    0.02494    0.96936    1.000
    Si1552   Si       0.45174    0.00787    0.76690    1.000
    N1553    N        0.32685    0.10042    0.07687    1.000
    Si1554   Si       0.28918    0.08897    0.09287    1.000
    Si1555   Si       0.32491    0.10211    0.03387    1.000
    N1556    N        0.36398    0.10289    0.01036    1.000
    Si1557   Si       0.41562    0.09123    0.10801    1.000
    Si1558   Si       0.39935    0.10954    0.03575    1.000
    N1559    N        0.40656    0.07703    0.06476    1.000
    N1560    N        0.43187    0.11224    0.00644    1.000
    N1561    N        0.44504    0.12251    0.10913    1.000
    Si1562   Si       0.28113    0.07765    0.22727    1.000
    N1563    N        0.29127    0.08863    0.13684    1.000
    N1564    N        0.27149    0.11323    0.20468    1.000
    Si1565   Si       0.29239    0.12006    0.16726    1.000
    N1566    N        0.48682    0.07390    0.13501    1.000
    Si1567   Si       0.48469    0.11425    0.12250    1.000
    N1568    N        0.47072    0.08609    0.20212    1.000
    N1569    N        0.37990    0.11066    0.12202    1.000
    Si1570   Si       0.36624    0.09698    0.16206    1.000
    N1571    N        0.39618    0.09550    0.19450    1.000
    Si1572   Si       0.43065    0.06908    0.20310    1.000
    N1573    N        0.26478    0.12409    0.08520    1.000
    N1574    N        0.30134    0.09093    0.26536    1.000
    Si1575   Si       0.33663    0.08545    0.29011    1.000
    N1576    N        0.24993    0.07197    0.30315    1.000
    Si1577   Si       0.24379    0.10540    0.33255    1.000
    Si1578   Si       0.39952    0.06798    0.41771    1.000
    N1579    N        0.42658    0.09793    0.37682    1.000
    N1580    N        0.48701    0.11109    0.34982    1.000
    N1581    N        0.37290    0.08873    0.33094    1.000
    N1582    N        0.43433    0.08936    0.30639    1.000
    Si1583   Si       0.39515    0.10712    0.28714    1.000
    Si1584   Si       0.41280    0.07334    0.34409    1.000
    Si1585   Si       0.47466    0.11403    0.30876    1.000
    N1586    N        0.37171    0.07271    0.26717    1.000
    N1587    N        0.24711    0.09655    0.37454    1.000
    Si1588   Si       0.26849    0.07753    0.44807    1.000
    N1589    N        0.33185    0.10528    0.37395    1.000
    N1590    N        0.29529    0.10542    0.42646    1.000
    Si1591   Si       0.28544    0.11167    0.38390    1.000
    Si1592   Si       0.33717    0.11876    0.41677    1.000
    N1593    N        0.25845    0.09079    0.48799    1.000
    Si1594   Si       0.45850    0.10256    0.45188    1.000
    N1595    N        0.37354    0.10379    0.43329    1.000
    Si1596   Si       0.38545    0.11154    0.47343    1.000
    Si1597   Si       0.45867    0.12478    0.37932    1.000
    Si1598   Si       0.27979    0.12630    0.27663    1.000
    N1599    N        0.47479    0.12710    0.41995    1.000
    Si1600   Si       0.31605    0.10486    0.57615    1.000
    N1601    N        0.28995    0.08609    0.60594    1.000
    Si1602   Si       0.26983    0.08227    0.52946    1.000
    N1603    N        0.29261    0.11680    0.54304    1.000
    N1604    N        0.34249    0.07437    0.55597    1.000
    Si1605   Si       0.38387    0.08602    0.54491    1.000
    N1606    N        0.38433    0.09112    0.61128    1.000
    N1607    N        0.38074    0.07926    0.50081    1.000
    Si1608   Si       0.47089    0.11108    0.61853    1.000
    N1609    N        0.33691    0.10491    0.65556    1.000
    Si1610   Si       0.29654    0.08823    0.64935    1.000
    Si1611   Si       0.34421    0.07809    0.68838    1.000
    N1612    N        0.26358    0.11581    0.66183    1.000
    Si1613   Si       0.36259    0.12331    0.62497    1.000
    N1614    N        0.44923    0.07214    0.62068    1.000
    Si1615   Si       0.39798    0.07907    0.71941    1.000
    N1616    N        0.43807    0.08598    0.70410    1.000
    N1617    N        0.36420    0.10712    0.71876    1.000
    N1618    N        0.33712    0.08676    0.83392    1.000
    N1619    N        0.31685    0.08939    0.76046    1.000
    Si1620   Si       0.27367    0.09645    0.75464    1.000
    N1621    N        0.26380    0.11810    0.79040    1.000
    Si1622   Si       0.35569    0.12686    0.82954    1.000
    N1623    N        0.47200    0.10241    0.95380    1.000
    Si1624   Si       0.41076    0.09175    0.79189    1.000
    Si1625   Si       0.40911    0.08893    0.86761    1.000
    N1626    N        0.37491    0.12217    0.78904    1.000
    N1627    N        0.42207    0.07195    0.82779    1.000
    N1628    N        0.43665    0.12766    0.78774    1.000
    N1629    N        0.24528    0.11417    0.95993    1.000
    N1630    N        0.30889    0.07144    0.90002    1.000
    Si1631   Si       0.24083    0.07255    0.94876    1.000
    Si1632   Si       0.46702    0.08727    0.99500    1.000
    N1633    N        0.39296    0.11165    0.94611    1.000
    Si1634   Si       0.38611    0.07074    0.93258    1.000
    Si1635   Si       0.43469    0.11866    0.93738    1.000
    N1636    N        0.43788    0.09834    0.89935    1.000
    N1637    N        0.39065    0.12636    0.85452    1.000
    Si1638   Si       0.32214    0.06654    0.79755    1.000
    Si1639   Si       0.28220    0.15671    0.10448    1.000
    N1640    N        0.32659    0.16263    0.10269    1.000
    Si1641   Si       0.35295    0.12910    0.09455    1.000
    Si1642   Si       0.25817    0.13006    0.00036    1.000
    Si1643   Si       0.39404    0.13291    0.21808    1.000
    N1644    N        0.29786    0.12831    0.01515    1.000
    N1645    N        0.48833    0.17795    0.08768    1.000
    N1646    N        0.47010    0.16770    0.01491    1.000
    N1647    N        0.38111    0.14179    0.06176    1.000
    Si1648   Si       0.44633    0.16589    0.10210    1.000
    N1649    N        0.33484    0.12613    0.17523    1.000
    N1650    N        0.27661    0.15321    0.14821    1.000
    Si1651   Si       0.33633    0.16705    0.18967    1.000
    N1652    N        0.36035    0.15932    0.22533    1.000
    Si1653   Si       0.26480    0.18468    0.17470    1.000
    Si1654   Si       0.46599    0.16043    0.18864    1.000
    N1655    N        0.47883    0.14554    0.22951    1.000
    N1656    N        0.42266    0.15991    0.19103    1.000
    N1657    N        0.29941    0.16458    0.26890    1.000
    N1658    N        0.33579    0.16405    0.34275    1.000
    Si1659   Si       0.34733    0.16415    0.26517    1.000
    Si1660   Si       0.29387    0.16941    0.33993    1.000
    N1661    N        0.27651    0.13130    0.32046    1.000
    Si1662   Si       0.35824    0.12760    0.34005    1.000
    N1663    N        0.42659    0.12711    0.47100    1.000
    N1664    N        0.46131    0.15339    0.29896    1.000
    N1665    N        0.39509    0.15326    0.33372    1.000
    Si1666   Si       0.43493    0.16856    0.32893    1.000
    Si1667   Si       0.44944    0.15904    0.25795    1.000
    N1668    N        0.45352    0.16704    0.36889    1.000
    N1669    N        0.41370    0.13302    0.25759    1.000
    N1670    N        0.28056    0.15643    0.37976    1.000
    N1671    N        0.26901    0.17838    0.44406    1.000
    Si1672   Si       0.29828    0.17769    0.41321    1.000
    N1673    N        0.33472    0.16120    0.42664    1.000
    Si1674   Si       0.35931    0.17692    0.45784    1.000
    N1675    N        0.36620    0.14755    0.48924    1.000
    Si1676   Si       0.42838    0.17072    0.47014    1.000
    N1677    N        0.46711    0.18379    0.46036    1.000
    N1678    N        0.35158    0.12758    0.28943    1.000
    Si1679   Si       0.27524    0.15574    0.53623    1.000
    N1680    N        0.33217    0.13857    0.59635    1.000
    Si1681   Si       0.32615    0.17834    0.58411    1.000
    N1682    N        0.28251    0.17724    0.57450    1.000
    N1683    N        0.34700    0.18388    0.54663    1.000
    Si1684   Si       0.38014    0.16126    0.52770    1.000
    Si1685   Si       0.41458    0.14903    0.58600    1.000
    N1686    N        0.45615    0.13748    0.58711    1.000
    N1687    N        0.39448    0.12919    0.55207    1.000
    N1688    N        0.41401    0.18492    0.50812    1.000
    N1689    N        0.39357    0.15259    0.62644    1.000
    Si1690   Si       0.26704    0.14733    0.69212    1.000
    N1691    N        0.30464    0.16794    0.68677    1.000
    N1692    N        0.26454    0.13191    0.73077    1.000
    Si1693   Si       0.40230    0.18308    0.65534    1.000
    N1694    N        0.47170    0.12955    0.65533    1.000
    Si1695   Si       0.44830    0.12630    0.69326    1.000
    N1696    N        0.48076    0.14276    0.71705    1.000
    N1697    N        0.42269    0.16204    0.69030    1.000
    Si1698   Si       0.47761    0.17735    0.74240    1.000
    N1699    N        0.32854    0.15955    0.84740    1.000
    Si1700   Si       0.27333    0.15912    0.77322    1.000
    Si1701   Si       0.28476    0.16882    0.84642    1.000
    N1702    N        0.31537    0.15816    0.76359    1.000
    N1703    N        0.25083    0.14359    0.85458    1.000
    N1704    N        0.39542    0.17014    0.99413    1.000
    N1705    N        0.43647    0.18384    0.75444    1.000
    Si1706   Si       0.40591    0.15865    0.77836    1.000
    Si1707   Si       0.46919    0.14886    0.80685    1.000
    Si1708   Si       0.41283    0.16427    0.85141    1.000
    N1709    N        0.45492    0.16409    0.84385    1.000
    N1710    N        0.39882    0.18207    0.81522    1.000
    N1711    N        0.43995    0.15926    0.94932    1.000
    N1712    N        0.37427    0.17182    0.74803    1.000
    N1713    N        0.33767    0.15417    0.95915    1.000
    N1714    N        0.24815    0.17234    0.98871    1.000
    Si1715   Si       0.43566    0.15383    0.99374    1.000
    Si1716   Si       0.36931    0.13382    0.97809    1.000
    N1717    N        0.40904    0.18564    0.88660    1.000
    Si1718   Si       0.34622    0.12474    0.75516    1.000
    N1719    N        0.28953    0.23138    0.01701    1.000
    Si1720   Si       0.26860    0.22908    0.11368    1.000
    N1721    N        0.26512    0.19290    0.08869    1.000
    N1722    N        0.36530    0.20817    0.03466    1.000
    N1723    N        0.37320    0.21092    0.09395    1.000
    Si1724   Si       0.41831    0.22416    0.09778    1.000
    Si1725   Si       0.47016    0.19028    0.04965    1.000
    N1726    N        0.42979    0.19001    0.06627    1.000
    N1727    N        0.46049    0.23897    0.09987    1.000
    Si1728   Si       0.38637    0.18274    0.06178    1.000
    Si1729   Si       0.34216    0.20075    0.12117    1.000
    N1730    N        0.31081    0.23193    0.12798    1.000
    Si1731   Si       0.30438    0.22671    0.22272    1.000
    N1732    N        0.24557    0.21485    0.14840    1.000
    N1733    N        0.34495    0.23968    0.23330    1.000
    N1734    N        0.30195    0.19090    0.19888    1.000
    N1735    N        0.47882    0.20339    0.19171    1.000
    N1736    N        0.42526    0.19120    0.13146    1.000
    Si1737   Si       0.44679    0.22492    0.21436    1.000
    N1738    N        0.35943    0.18971    0.15963    1.000
    Si1739   Si       0.40479    0.19145    0.16761    1.000
    N1740    N        0.41303    0.22794    0.18865    1.000
    N1741    N        0.29198    0.20979    0.32195    1.000
    N1742    N        0.27527    0.22648    0.25520    1.000
    Si1743   Si       0.27526    0.19531    0.28502    1.000
    N1744    N        0.36088    0.19827    0.28961    1.000
    Si1745   Si       0.36330    0.23931    0.27255    1.000
    Si1746   Si       0.36915    0.18947    0.33059    1.000
    N1747    N        0.37036    0.22214    0.36104    1.000
    N1748    N        0.42845    0.21126    0.32319    1.000
    Si1749   Si       0.43793    0.22940    0.28565    1.000
    N1750    N        0.44143    0.20289    0.25246    1.000
    Si1751   Si       0.41009    0.23740    0.35279    1.000
    Si1752   Si       0.26333    0.20548    0.47867    1.000
    N1753    N        0.30479    0.21871    0.40407    1.000
    N1754    N        0.34601    0.21217    0.47882    1.000
    Si1755   Si       0.26416    0.23327    0.41615    1.000
    Si1756   Si       0.34206    0.23949    0.38881    1.000
    N1757    N        0.26654    0.24412    0.45818    1.000
    N1758    N        0.39788    0.18560    0.44194    1.000
    Si1759   Si       0.46463    0.20804    0.38091    1.000
    N1760    N        0.43018    0.22911    0.39055    1.000
    Si1761   Si       0.48416    0.22197    0.45042    1.000
    Si1762   Si       0.40694    0.22496    0.42655    1.000
    N1763    N        0.34510    0.21062    0.60841    1.000
    Si1764   Si       0.32490    0.20956    0.51694    1.000
    Si1765   Si       0.25760    0.21240    0.58109    1.000
    N1766    N        0.28779    0.18795    0.50854    1.000
    Si1767   Si       0.31574    0.24182    0.61904    1.000
    Si1768   Si       0.38779    0.21657    0.59701    1.000
    Si1769   Si       0.43721    0.20315    0.53952    1.000
    N1770    N        0.41321    0.18973    0.57433    1.000
    N1771    N        0.47648    0.19105    0.54405    1.000
    Si1772   Si       0.32763    0.20567    0.68800    1.000
    N1773    N        0.32548    0.22330    0.72826    1.000
    N1774    N        0.30503    0.23214    0.66183    1.000
    N1775    N        0.41478    0.21834    0.63371    1.000
    N1776    N        0.36947    0.19681    0.68342    1.000
    N1777    N        0.40959    0.23116    0.72773    1.000
    Si1778   Si       0.40113    0.18906    0.71815    1.000
    N1779    N        0.23992    0.23858    0.70328    1.000
    N1780    N        0.34217    0.22108    0.79293    1.000
    Si1781   Si       0.33807    0.19468    0.75857    1.000
    Si1782   Si       0.24952    0.21671    0.78903    1.000
    N1783    N        0.24854    0.19121    0.75500    1.000
    Si1784   Si       0.33474    0.19703    0.87226    1.000
    N1785    N        0.36506    0.22679    0.85614    1.000
    Si1786   Si       0.37992    0.22115    0.81535    1.000
    Si1787   Si       0.43464    0.22858    0.76248    1.000
    N1788    N        0.47467    0.24122    0.77438    1.000
    N1789    N        0.40844    0.24562    0.79448    1.000
    N1790    N        0.24073    0.24044    0.91164    1.000
    N1791    N        0.29144    0.19972    0.87914    1.000
    Si1792   Si       0.33177    0.19546    0.94964    1.000
    Si1793   Si       0.26640    0.20658    0.91398    1.000
    Si1794   Si       0.26337    0.21183    0.98521    1.000
    N1795    N        0.34912    0.22612    0.97516    1.000
    N1796    N        0.29108    0.20682    0.95120    1.000
    N1797    N        0.35219    0.20206    0.91191    1.000
    Si1798   Si       0.38567    0.21284    0.99587    1.000
    N1799    N        0.47964    0.18805    0.90191    1.000
    N1800    N        0.48860    0.23646    0.96790    1.000
    N1801    N        0.42811    0.22797    0.92627    1.000
    Si1802   Si       0.38891    0.22631    0.89710    1.000
    Si1803   Si       0.44033    0.18731    0.91647    1.000
    N1804    N        0.27490    0.18558    0.80956    1.000
    N1805    N        0.34449    0.27191    0.03222    1.000
    N1806    N        0.25657    0.25952    0.08720    1.000
    N1807    N        0.25134    0.28981    0.02382    1.000
    N1808    N        0.35247    0.27785    0.09582    1.000
    Si1809   Si       0.26080    0.25147    0.04462    1.000
    Si1810   Si       0.32409    0.25192    0.00015    1.000
    Si1811   Si       0.36202    0.24240    0.06229    1.000
    N1812    N        0.40676    0.25756    0.06388    1.000
    Si1813   Si       0.42438    0.27200    0.02770    1.000
    N1814    N        0.46821    0.27420    0.02401    1.000
    Si1815   Si       0.39714    0.28971    0.09433    1.000
    Si1816   Si       0.25838    0.28145    0.20570    1.000
    Si1817   Si       0.32793    0.27336    0.13424    1.000
    Si1818   Si       0.33677    0.27614    0.20722    1.000
    N1819    N        0.29592    0.26262    0.19905    1.000
    N1820    N        0.35475    0.27357    0.16700    1.000
    N1821    N        0.41623    0.29864    0.17339    1.000
    N1822    N        0.47691    0.28516    0.15685    1.000
    Si1823   Si       0.45151    0.27341    0.12587    1.000
    Si1824   Si       0.39677    0.26199    0.16673    1.000
    N1825    N        0.46337    0.26418    0.22342    1.000
    N1826    N        0.40978    0.25775    0.12665    1.000
    Si1827   Si       0.45974    0.29797    0.19601    1.000
    N1828    N        0.33452    0.26442    0.29534    1.000
    N1829    N        0.26469    0.27098    0.31672    1.000
    N1830    N        0.31829    0.26668    0.36120    1.000
    Si1831   Si       0.30382    0.25126    0.32217    1.000
    N1832    N        0.26000    0.29321    0.24841    1.000
    Si1833   Si       0.23988    0.25469    0.25521    1.000
    N1834    N        0.40915    0.27914    0.34425    1.000
    N1835    N        0.40516    0.25571    0.28072    1.000
    Si1836   Si       0.40902    0.29304    0.30339    1.000
    N1837    N        0.47670    0.25323    0.29169    1.000
    Si1838   Si       0.29183    0.29525    0.37919    1.000
    Si1839   Si       0.28220    0.27490    0.48278    1.000
    N1840    N        0.32531    0.28276    0.47163    1.000
    N1841    N        0.25901    0.26944    0.38994    1.000
    Si1842   Si       0.35568    0.25369    0.46871    1.000
    N1843    N        0.44807    0.30200    0.47392    1.000
    Si1844   Si       0.42822    0.26673    0.49256    1.000
    Si1845   Si       0.45723    0.28125    0.43703    1.000
    N1846    N        0.43702    0.24526    0.45392    1.000
    N1847    N        0.36676    0.24607    0.42565    1.000
    N1848    N        0.38619    0.26571    0.49814    1.000
    Si1849   Si       0.29440    0.27006    0.55037    1.000
    N1850    N        0.26383    0.26198    0.51912    1.000
    N1851    N        0.32827    0.24994    0.53199    1.000
    N1852    N        0.28639    0.24554    0.58662    1.000
    Si1853   Si       0.36597    0.26953    0.53707    1.000
    Si1854   Si       0.42888    0.26768    0.56677    1.000
    N1855    N        0.45552    0.25810    0.59802    1.000
    N1856    N        0.38796    0.25225    0.57163    1.000
    N1857    N        0.43998    0.24825    0.53052    1.000
    N1858    N        0.43403    0.29021    0.71725    1.000
    N1859    N        0.33615    0.27876    0.62462    1.000
    N1860    N        0.24761    0.26796    0.64437    1.000
    N1861    N        0.29172    0.28370    0.70662    1.000
    Si1862   Si       0.32568    0.26655    0.72581    1.000
    Si1863   Si       0.27221    0.25546    0.67949    1.000
    N1864    N        0.35983    0.27465    0.69677    1.000
    Si1865   Si       0.36502    0.28895    0.65684    1.000
    Si1866   Si       0.39389    0.27062    0.72234    1.000
    N1867    N        0.46929    0.25397    0.66680    1.000
    Si1868   Si       0.47065    0.28484    0.69729    1.000
    N1869    N        0.40890    0.28605    0.64806    1.000
    Si1870   Si       0.43829    0.25366    0.63812    1.000
    N1871    N        0.32471    0.28029    0.76753    1.000
    N1872    N        0.31720    0.26766    0.83956    1.000
    N1873    N        0.26885    0.25435    0.78713    1.000
    Si1874   Si       0.25682    0.29801    0.78777    1.000
    Si1875   Si       0.35616    0.27340    0.86019    1.000
    Si1876   Si       0.28727    0.29564    0.85180    1.000
    Si1877   Si       0.31139    0.25213    0.79874    1.000
    N1878    N        0.25016    0.26933    0.85181    1.000
    N1879    N        0.37391    0.28748    0.82312    1.000
    N1880    N        0.44865    0.27621    0.83792    1.000
    Si1881   Si       0.41634    0.28937    0.81191    1.000
    Si1882   Si       0.47479    0.27420    0.80297    1.000
    Si1883   Si       0.48134    0.28154    0.86556    1.000
    N1884    N        0.38731    0.29836    0.75665    1.000
    Si1885   Si       0.24337    0.28011    0.89545    1.000
    N1886    N        0.30445    0.28544    0.97872    1.000
    Si1887   Si       0.26208    0.28487    0.98068    1.000
    Si1888   Si       0.40643    0.29003    0.97369    1.000
    Si1889   Si       0.46185    0.25425    0.93381    1.000
    N1890    N        0.38046    0.27103    0.89632    1.000
    N1891    N        0.44189    0.29117    0.94519    1.000
    N1892    N        0.40855    0.24933    0.99523    1.000
    Si1893   Si       0.35540    0.30410    0.78785    1.000
    N1894    N        0.31045    0.33075    0.06990    1.000
    Si1895   Si       0.30654    0.34274    0.11191    1.000
    N1896    N        0.33689    0.34252    0.00866    1.000
    Si1897   Si       0.34635    0.30578    0.06139    1.000
    Si1898   Si       0.23943    0.32961    0.03956    1.000
    Si1899   Si       0.30640    0.35804    0.03708    1.000
    N1900    N        0.38391    0.32596    0.06962    1.000
    Si1901   Si       0.46866    0.33457    0.09070    1.000
    Si1902   Si       0.41369    0.34372    0.04078    1.000
    N1903    N        0.41550    0.31181    0.01077    1.000
    N1904    N        0.45405    0.35454    0.05568    1.000
    N1905    N        0.43898    0.30612    0.10010    1.000
    Si1906   Si       0.28126    0.33871    0.16615    1.000
    N1907    N        0.24790    0.31640    0.18182    1.000
    Si1908   Si       0.33797    0.34862    0.22117    1.000
    N1909    N        0.30448    0.31027    0.14052    1.000
    N1910    N        0.33845    0.30789    0.23479    1.000
    N1911    N        0.30398    0.35889    0.19630    1.000
    N1912    N        0.47440    0.35660    0.12671    1.000
    Si1913   Si       0.40896    0.33900    0.18693    1.000
    N1914    N        0.43642    0.33278    0.21995    1.000
    N1915    N        0.37010    0.35583    0.19428    1.000
    N1916    N        0.30384    0.32757    0.28982    1.000
    N1917    N        0.28030    0.32742    0.35287    1.000
    Si1918   Si       0.26733    0.30466    0.28904    1.000
    Si1919   Si       0.33900    0.30408    0.27973    1.000
    Si1920   Si       0.44351    0.34581    0.25992    1.000
    N1921    N        0.37649    0.31878    0.29210    1.000
    N1922    N        0.44391    0.31953    0.29404    1.000
    Si1923   Si       0.46569    0.33452    0.32933    1.000
    N1924    N        0.43355    0.34611    0.36088    1.000
    Si1925   Si       0.24510    0.34805    0.47806    1.000
    N1926    N        0.34456    0.35109    0.45007    1.000
    Si1927   Si       0.34137    0.35044    0.40551    1.000
    Si1928   Si       0.31359    0.31991    0.45366    1.000
    N1929    N        0.27390    0.31624    0.47017    1.000
    N1930    N        0.31313    0.31673    0.41039    1.000
    N1931    N        0.44128    0.30289    0.40418    1.000
    Si1932   Si       0.41135    0.30907    0.37517    1.000
    Si1933   Si       0.45308    0.34489    0.40172    1.000
    N1934    N        0.37627    0.33323    0.38229    1.000
    Si1935   Si       0.43408    0.34380    0.47711    1.000
    Si1936   Si       0.33115    0.33761    0.55023    1.000
    Si1937   Si       0.25228    0.33143    0.55606    1.000
    N1938    N        0.33346    0.34997    0.59259    1.000
    N1939    N        0.29223    0.31475    0.54853    1.000
    N1940    N        0.36392    0.30997    0.54687    1.000
    Si1941   Si       0.40035    0.33627    0.54377    1.000
    Si1942   Si       0.46059    0.33026    0.58674    1.000
    N1943    N        0.43343    0.31054    0.55848    1.000
    N1944    N        0.43192    0.34242    0.61757    1.000
    Si1945   Si       0.32282    0.32032    0.62191    1.000
    N1946    N        0.24230    0.32144    0.68709    1.000
    Si1947   Si       0.24552    0.31002    0.64545    1.000
    N1948    N        0.27969    0.33206    0.62863    1.000
    Si1949   Si       0.27662    0.32313    0.71411    1.000
    N1950    N        0.34945    0.33145    0.65496    1.000
    N1951    N        0.30960    0.35357    0.71440    1.000
    N1952    N        0.47167    0.32288    0.67574    1.000
    N1953    N        0.41115    0.35331    0.68147    1.000
    Si1954   Si       0.43158    0.32400    0.65523    1.000
    N1955    N        0.39689    0.33906    0.49861    1.000
    N1956    N        0.34297    0.34368    0.80239    1.000
    N1957    N        0.27833    0.32249    0.81751    1.000
    Si1958   Si       0.30049    0.35842    0.81432    1.000
    N1959    N        0.25818    0.32438    0.75458    1.000
    N1960    N        0.48675    0.34244    0.82174    1.000
    Si1961   Si       0.24220    0.36352    0.76848    1.000
    N1962    N        0.41363    0.33576    0.81261    1.000
    Si1963   Si       0.45298    0.35058    0.79595    1.000
    Si1964   Si       0.48555    0.35249    0.86495    1.000
    Si1965   Si       0.42646    0.31501    0.75080    1.000
    N1966    N        0.43915    0.35546    0.74706    1.000
    N1967    N        0.40579    0.33657    0.90158    1.000
    N1968    N        0.45336    0.30262    0.78088    1.000
    N1969    N        0.24921    0.31331    0.95093    1.000
    Si1970   Si       0.27388    0.33574    0.92543    1.000
    Si1971   Si       0.33297    0.31864    0.97397    1.000
    N1972    N        0.31099    0.34664    0.94638    1.000
    N1973    N        0.34475    0.31991    0.87956    1.000
    N1974    N        0.27727    0.30760    0.89046    1.000
    N1975    N        0.37028    0.30496    0.95596    1.000
    Si1976   Si       0.37339    0.31038    0.91157    1.000
    Si1977   Si       0.44470    0.32747    0.92005    1.000
    N1978    N        0.47148    0.31828    0.88652    1.000
    Si1979   Si       0.34255    0.36435    0.87443    1.000
    N1980    N        0.33398    0.39006    0.04962    1.000
    Si1981   Si       0.33782    0.40364    0.08960    1.000
    Si1982   Si       0.36037    0.37894    0.01493    1.000
    N1983    N        0.26401    0.36311    0.02661    1.000
    Si1984   Si       0.24234    0.39836    0.01344    1.000
    N1985    N        0.33913    0.37258    0.12258    1.000
    N1986    N        0.40036    0.38261    0.02844    1.000
    N1987    N        0.47350    0.40625    0.01320    1.000
    Si1988   Si       0.43107    0.41287    0.01427    1.000
    Si1989   Si       0.48734    0.36984    0.03395    1.000
    Si1990   Si       0.28888    0.39983    0.20727    1.000
    Si1991   Si       0.28066    0.40861    0.13050    1.000
    N1992    N        0.27179    0.36534    0.13031    1.000
    N1993    N        0.24485    0.40175    0.20113    1.000
    N1994    N        0.40986    0.36695    0.14936    1.000
    Si1995   Si       0.36862    0.37926    0.15620    1.000
    Si1996   Si       0.44512    0.38840    0.13590    1.000
    N1997    N        0.46549    0.40652    0.16893    1.000
    N1998    N        0.29890    0.39051    0.31585    1.000
    Si1999   Si       0.29076    0.37063    0.35250    1.000
    Si2000   Si       0.30289    0.36973    0.27793    1.000
    N2001    N        0.24796    0.37928    0.35484    1.000
    N2002    N        0.34417    0.36840    0.26128    1.000
    N2003    N        0.27602    0.38712    0.25124    1.000
    N2004    N        0.38448    0.38452    0.32726    1.000
    N2005    N        0.41368    0.37568    0.26635    1.000
    Si2006   Si       0.39353    0.37067    0.36689    1.000
    Si2007   Si       0.37811    0.36302    0.28955    1.000
    N2008    N        0.48460    0.37252    0.32130    1.000
    Si2009   Si       0.48942    0.39515    0.28448    1.000
    N2010    N        0.48406    0.36166    0.25532    1.000
    Si2011   Si       0.41800    0.41831    0.26609    1.000
    N2012    N        0.27233    0.38112    0.46922    1.000
    N2013    N        0.31771    0.38253    0.38207    1.000
    Si2014   Si       0.27856    0.41824    0.48919    1.000
    Si2015   Si       0.34028    0.41852    0.38497    1.000
    Si2016   Si       0.36477    0.36462    0.48438    1.000
    Si2017   Si       0.40557    0.39640    0.43253    1.000
    N2018    N        0.43223    0.36342    0.43854    1.000
    N2019    N        0.38556    0.40068    0.47203    1.000
    N2020    N        0.37701    0.39794    0.39825    1.000
    N2021    N        0.48616    0.41844    0.45866    1.000
    Si2022   Si       0.33983    0.38998    0.60535    1.000
    N2023    N        0.34367    0.36877    0.52322    1.000
    N2024    N        0.25679    0.37199    0.57236    1.000
    Si2025   Si       0.25242    0.40822    0.54802    1.000
    Si2026   Si       0.33612    0.41149    0.53393    1.000
    Si2027   Si       0.26820    0.37180    0.61375    1.000
    N2028    N        0.29291    0.41247    0.53004    1.000
    Si2029   Si       0.41263    0.38114    0.60720    1.000
    Si2030   Si       0.44889    0.38935    0.54526    1.000
    N2031    N        0.40958    0.37510    0.56220    1.000
    N2032    N        0.45081    0.37294    0.50476    1.000
    N2033    N        0.47818    0.36316    0.56753    1.000
    N2034    N        0.44229    0.40982    0.61684    1.000
    N2035    N        0.30181    0.39833    0.62272    1.000
    Si2036   Si       0.32293    0.39496    0.71321    1.000
    N2037    N        0.36224    0.39938    0.69515    1.000
    N2038    N        0.29215    0.41735    0.69410    1.000
    Si2039   Si       0.44174    0.37219    0.70584    1.000
    Si2040   Si       0.37282    0.36817    0.66666    1.000
    N2041    N        0.37625    0.38694    0.62777    1.000
    N2042    N        0.47923    0.38984    0.69418    1.000
    N2043    N        0.42940    0.41249    0.72140    1.000
    N2044    N        0.34191    0.42040    0.57529    1.000
    N2045    N        0.27395    0.38330    0.78851    1.000
    N2046    N        0.30950    0.37973    0.85074    1.000
    N2047    N        0.32509    0.41303    0.75341    1.000
    N2048    N        0.40719    0.40793    0.90697    1.000
    N2049    N        0.37916    0.38190    0.85321    1.000
    Si2050   Si       0.47073    0.40910    0.83456    1.000
    N2051    N        0.38972    0.39155    0.77809    1.000
    N2052    N        0.45380    0.39480    0.79603    1.000
    N2053    N        0.45104    0.38025    0.86219    1.000
    Si2054   Si       0.42962    0.39696    0.76182    1.000
    N2055    N        0.35274    0.39991    0.97717    1.000
    Si2056   Si       0.25300    0.40782    0.94040    1.000
    N2057    N        0.25627    0.37334    0.91137    1.000
    Si2058   Si       0.32564    0.38720    0.94750    1.000
    N2059    N        0.34381    0.38899    0.90818    1.000
    N2060    N        0.29419    0.41849    0.94830    1.000
    Si2061   Si       0.43673    0.40268    0.93915    1.000
    Si2062   Si       0.41299    0.37492    0.87924    1.000
    N2063    N        0.45327    0.36270    0.94566    1.000
    Si2064   Si       0.30134    0.42365    0.85071    1.000
    N2065    N        0.41868    0.42049    0.97315    1.000
    Si2066   Si       0.38039    0.36476    0.81143    1.000
    Si2067   Si       0.28691    0.45304    0.06059    1.000
    N2068    N        0.26122    0.43548    0.02836    1.000
    N2069    N        0.32553    0.46800    0.04616    1.000
    N2070    N        0.29767    0.42383    0.09310    1.000
    Si2071   Si       0.35237    0.47451    0.07845    1.000
    N2072    N        0.36538    0.43720    0.09579    1.000
    Si2073   Si       0.44452    0.44738    0.07986    1.000
    N2074    N        0.43117    0.45015    0.03757    1.000
    N2075    N        0.42897    0.42293    0.11187    1.000
    N2076    N        0.48591    0.43706    0.07656    1.000
    N2077    N        0.37996    0.46851    0.00006    1.000
    Si2078   Si       0.33591    0.44237    0.18160    1.000
    N2079    N        0.33107    0.42566    0.22230    1.000
    N2080    N        0.24372    0.43209    0.13768    1.000
    N2081    N        0.46410    0.47877    0.18472    1.000
    N2082    N        0.42688    0.44579    0.23441    1.000
    Si2083   Si       0.39193    0.44090    0.12951    1.000
    Si2084   Si       0.46850    0.44974    0.21767    1.000
    Si2085   Si       0.23683    0.47514    0.14211    1.000
    Si2086   Si       0.42383    0.47996    0.00461    1.000
    N2087    N        0.30081    0.42019    0.16623    1.000
    N2088    N        0.36973    0.42261    0.16238    1.000
    N2089    N        0.31069    0.45619    0.28299    1.000
    Si2090   Si       0.30345    0.43377    0.31881    1.000
    N2091    N        0.26526    0.44578    0.33612    1.000
    Si2092   Si       0.34423    0.44612    0.25869    1.000
    N2093    N        0.33872    0.43692    0.34396    1.000
    Si2094   Si       0.24290    0.42061    0.36421    1.000
    N2095    N        0.45615    0.42531    0.28679    1.000
    N2096    N        0.40744    0.44639    0.35373    1.000
    Si2097   Si       0.46209    0.46794    0.28495    1.000
    N2098    N        0.37939    0.43133    0.28372    1.000
    Si2099   Si       0.37964    0.42769    0.32640    1.000
    Si2100   Si       0.27202    0.46162    0.43045    1.000
    N2101    N        0.32449    0.45329    0.40537    1.000
    N2102    N        0.29554    0.45021    0.46710    1.000
    N2103    N        0.25344    0.43017    0.40736    1.000
    Si2104   Si       0.33243    0.46978    0.44660    1.000
    Si2105   Si       0.42912    0.45914    0.38737    1.000
    N2106    N        0.42823    0.43200    0.42274    1.000
    Si2107   Si       0.45522    0.44733    0.45479    1.000
    N2108    N        0.43240    0.44849    0.49116    1.000
    Si2109   Si       0.38959    0.44016    0.48644    1.000
    N2110    N        0.37445    0.46937    0.45791    1.000
    N2111    N        0.47032    0.46256    0.37853    1.000
    N2112    N        0.48366    0.48011    0.24780    1.000
    Si2113   Si       0.33375    0.45704    0.59689    1.000
    Si2114   Si       0.25561    0.46924    0.60698    1.000
    N2115    N        0.35790    0.44611    0.51892    1.000
    N2116    N        0.49326    0.45566    0.72874    1.000
    Si2117   Si       0.39129    0.43038    0.70540    1.000
    Si2118   Si       0.46085    0.44319    0.59751    1.000
    Si2119   Si       0.45372    0.46603    0.52366    1.000
    N2120    N        0.45454    0.43200    0.55401    1.000
    Si2121   Si       0.46691    0.42994    0.70638    1.000
    N2122    N        0.26038    0.45077    0.64643    1.000
    Si2123   Si       0.29959    0.43197    0.65341    1.000
    N2124    N        0.33482    0.45316    0.64013    1.000
    Si2125   Si       0.25416    0.42027    0.71609    1.000
    N2126    N        0.46581    0.45400    0.66767    1.000
    N2127    N        0.38120    0.44877    0.74395    1.000
    N2128    N        0.39661    0.45722    0.67201    1.000
    Si2129   Si       0.43039    0.47327    0.65108    1.000
    Si2130   Si       0.35997    0.48106    0.66373    1.000
    N2131    N        0.30816    0.43986    0.81239    1.000
    N2132    N        0.26166    0.44508    0.75014    1.000
    Si2133   Si       0.33277    0.47340    0.80772    1.000
    N2134    N        0.25855    0.42645    0.85782    1.000
    Si2135   Si       0.36131    0.42322    0.77384    1.000
    Si2136   Si       0.36847    0.42615    0.89671    1.000
    Si2137   Si       0.29023    0.42205    0.77556    1.000
    N2138    N        0.37382    0.45358    0.80617    1.000
    N2139    N        0.45110    0.44503    0.84787    1.000
    N2140    N        0.44635    0.47247    0.78286    1.000
    Si2141   Si       0.38367    0.47927    0.84488    1.000
    Si2142   Si       0.40272    0.47423    0.77921    1.000
    N2143    N        0.33026    0.44567    0.87344    1.000
    Si2144   Si       0.31419    0.45467    0.94465    1.000
    N2145    N        0.35805    0.45134    0.93496    1.000
    N2146    N        0.29978    0.48223    0.91503    1.000
    N2147    N        0.46787    0.42741    0.92138    1.000
    Si2148   Si       0.37804    0.43488    0.97120    1.000
    Si2149   Si       0.44159    0.45007    0.89110    1.000
    N2150    N        0.39448    0.46692    0.88382    1.000
    N2151    N        0.46058    0.48027    0.97818    1.000
    N2152    N        0.27381    0.49424    0.07709    1.000
    Si2153   Si       0.26006    0.52258    0.04913    1.000
    N2154    N        0.25507    0.49876    0.01256    1.000
    Si2155   Si       0.29272    0.50805    0.11283    1.000
    Si2156   Si       0.34432    0.48824    0.01209    1.000
    N2157    N        0.33303    0.49276    0.11352    1.000
    N2158    N        0.34290    0.53301    0.01954    1.000
    N2159    N        0.43560    0.51761    0.02284    1.000
    Si2160   Si       0.42076    0.51656    0.06405    1.000
    N2161    N        0.44083    0.48983    0.09141    1.000
    N2162    N        0.37914    0.50661    0.06433    1.000
    Si2163   Si       0.43039    0.50194    0.16891    1.000
    N2164    N        0.27234    0.49753    0.14975    1.000
    Si2165   Si       0.29722    0.50319    0.18580    1.000
    N2166    N        0.28613    0.48407    0.22387    1.000
    Si2167   Si       0.35772    0.50271    0.14771    1.000
    N2168    N        0.33590    0.48455    0.17866    1.000
    N2169    N        0.41292    0.51320    0.20980    1.000
    N2170    N        0.39666    0.48084    0.14784    1.000
    N2171    N        0.25185    0.49578    0.28618    1.000
    N2172    N        0.30258    0.50083    0.34042    1.000
    Si2173   Si       0.29003    0.49084    0.26583    1.000
    N2174    N        0.31543    0.52756    0.27579    1.000
    Si2175   Si       0.33752    0.52480    0.33884    1.000
    Si2176   Si       0.26239    0.48843    0.32830    1.000
    Si2177   Si       0.35704    0.51917    0.27489    1.000
    N2178    N        0.36304    0.48404    0.24971    1.000
    N2179    N        0.36921    0.51178    0.31477    1.000
    Si2180   Si       0.47855    0.49456    0.34968    1.000
    N2181    N        0.42662    0.49242    0.28288    1.000
    N2182    N        0.44064    0.51336    0.35037    1.000
    Si2183   Si       0.41392    0.51800    0.31606    1.000
    N2184    N        0.47716    0.48316    0.44193    1.000
    Si2185   Si       0.31338    0.48753    0.38173    1.000
    N2186    N        0.34494    0.51967    0.38176    1.000
    N2187    N        0.27795    0.49694    0.40772    1.000
    N2188    N        0.31997    0.50837    0.46750    1.000
    Si2189   Si       0.46807    0.52352    0.45185    1.000
    Si2190   Si       0.39825    0.50355    0.44738    1.000
    Si2191   Si       0.43314    0.53144    0.38921    1.000
    N2192    N        0.41608    0.49666    0.40779    1.000
    N2193    N        0.43106    0.51731    0.47288    1.000
    Si2194   Si       0.26481    0.53712    0.40888    1.000
    Si2195   Si       0.40580    0.48499    0.24462    1.000
    Si2196   Si       0.30155    0.51346    0.57060    1.000
    N2197    N        0.31336    0.50202    0.53083    1.000
    Si2198   Si       0.35584    0.48781    0.53273    1.000
    N2199    N        0.26204    0.53438    0.56709    1.000
    N2200    N        0.35954    0.48683    0.57674    1.000
    Si2201   Si       0.24207    0.51822    0.53313    1.000
    Si2202   Si       0.29359    0.48582    0.49544    1.000
    N2203    N        0.29478    0.47694    0.58983    1.000
    N2204    N        0.25433    0.48100    0.51504    1.000
    Si2205   Si       0.36609    0.52408    0.59885    1.000
    N2206    N        0.37363    0.52157    0.51285    1.000
    N2207    N        0.43656    0.50205    0.54109    1.000
    Si2208   Si       0.43475    0.51471    0.58371    1.000
    Si2209   Si       0.41763    0.52989    0.51426    1.000
    Si2210   Si       0.35501    0.48435    0.73887    1.000
    N2211    N        0.34313    0.49511    0.70022    1.000
    N2212    N        0.45393    0.51715    0.72759    1.000
    N2213    N        0.36759    0.51782    0.64206    1.000
    Si2214   Si       0.46648    0.52960    0.68552    1.000
    N2215    N        0.43225    0.51516    0.66259    1.000
    N2216    N        0.43615    0.47639    0.60784    1.000
    N2217    N        0.32392    0.48716    0.76943    1.000
    Si2218   Si       0.26386    0.52132    0.82669    1.000
    Si2219   Si       0.29884    0.52336    0.76232    1.000
    N2220    N        0.34473    0.49880    0.84008    1.000
    N2221    N        0.28377    0.50766    0.86177    1.000
    N2222    N        0.24793    0.48303    0.80982    1.000
    N2223    N        0.25696    0.51775    0.75060    1.000
    Si2224   Si       0.24016    0.47962    0.76628    1.000
    N2225    N        0.41167    0.50486    0.82353    1.000
    N2226    N        0.38745    0.50971    0.75711    1.000
    Si2227   Si       0.47517    0.48853    0.75299    1.000
    N2228    N        0.48379    0.50359    0.84122    1.000
    Si2229   Si       0.45090    0.48071    0.82448    1.000
    Si2230   Si       0.32155    0.49210    0.87666    1.000
    Si2231   Si       0.26045    0.50129    0.90080    1.000
    N2232    N        0.24848    0.49502    0.94529    1.000
    Si2233   Si       0.27751    0.50143    0.97617    1.000
    N2234    N        0.35184    0.51726    0.90299    1.000
    N2235    N        0.31459    0.47983    0.98016    1.000
    N2236    N        0.45720    0.48947    0.90503    1.000
    N2237    N        0.40563    0.49650    0.94814    1.000
    Si2238   Si       0.37764    0.48701    0.91795    1.000
    Si2239   Si       0.48761    0.51159    0.88212    1.000
    Si2240   Si       0.44704    0.50391    0.94367    1.000
    N2241    N        0.28033    0.55987    0.04159    1.000
    N2242    N        0.34970    0.58228    0.07289    1.000
    Si2243   Si       0.30837    0.55755    0.00789    1.000
    Si2244   Si       0.33860    0.56597    0.11204    1.000
    N2245    N        0.29850    0.55090    0.11662    1.000
    N2246    N        0.49261    0.58665    0.16872    1.000
    Si2247   Si       0.37307    0.55517    0.04443    1.000
    N2248    N        0.41198    0.55964    0.06969    1.000
    N2249    N        0.47160    0.57843    0.10350    1.000
    N2250    N        0.46459    0.58038    0.01737    1.000
    Si2251   Si       0.43182    0.59199    0.09077    1.000
    N2252    N        0.39016    0.58572    0.01520    1.000
    Si2253   Si       0.46232    0.54087    0.99729    1.000
    Si2254   Si       0.30565    0.58186    0.21039    1.000
    Si2255   Si       0.27762    0.56453    0.15322    1.000
    N2256    N        0.30068    0.54585    0.18534    1.000
    N2257    N        0.43703    0.57282    0.24498    1.000
    Si2258   Si       0.47339    0.55786    0.14174    1.000
    N2259    N        0.39619    0.58291    0.18936    1.000
    N2260    N        0.43531    0.54160    0.15323    1.000
    Si2261   Si       0.40690    0.55364    0.22032    1.000
    Si2262   Si       0.40049    0.56712    0.14912    1.000
    N2263    N        0.36724    0.54352    0.13651    1.000
    N2264    N        0.26170    0.57065    0.30474    1.000
    Si2265   Si       0.30328    0.56861    0.28788    1.000
    N2266    N        0.33185    0.56696    0.32406    1.000
    Si2267   Si       0.25160    0.55974    0.34632    1.000
    Si2268   Si       0.24616    0.58121    0.26325    1.000
    Si2269   Si       0.45178    0.58806    0.32640    1.000
    N2270    N        0.42195    0.56010    0.30969    1.000
    Si2271   Si       0.40710    0.58153    0.27480    1.000
    Si2272   Si       0.47669    0.57845    0.25978    1.000
    N2273    N        0.37777    0.55428    0.25693    1.000
    N2274    N        0.48560    0.57044    0.34452    1.000
    Si2275   Si       0.46145    0.58942    0.43841    1.000
    N2276    N        0.34152    0.58967    0.40616    1.000
    N2277    N        0.28251    0.56097    0.37764    1.000
    N2278    N        0.27818    0.56681    0.43791    1.000
    Si2279   Si       0.27794    0.56867    0.48020    1.000
    N2280    N        0.32236    0.57298    0.48718    1.000
    Si2281   Si       0.36153    0.55281    0.40567    1.000
    Si2282   Si       0.29833    0.59491    0.40621    1.000
    N2283    N        0.46198    0.55092    0.41595    1.000
    N2284    N        0.40016    0.56260    0.38637    1.000
    N2285    N        0.37158    0.53767    0.44472    1.000
    Si2286   Si       0.34751    0.53680    0.48197    1.000
    N2287    N        0.28620    0.57689    0.24641    1.000
    N2288    N        0.25028    0.54118    0.49795    1.000
    N2289    N        0.32647    0.53998    0.59512    1.000
    N2290    N        0.46900    0.54097    0.59049    1.000
    Si2291   Si       0.40697    0.58560    0.60222    1.000
    N2292    N        0.42429    0.57166    0.51529    1.000
    N2293    N        0.40234    0.54444    0.58682    1.000
    Si2294   Si       0.30967    0.56230    0.62806    1.000
    N2295    N        0.26501    0.56231    0.62887    1.000
    N2296    N        0.32580    0.56700    0.66933    1.000
    N2297    N        0.32232    0.54825    0.73677    1.000
    Si2298   Si       0.34391    0.54164    0.69991    1.000
    N2299    N        0.38747    0.54689    0.70184    1.000
    Si2300   Si       0.31350    0.59179    0.74418    1.000
    Si2301   Si       0.41491    0.53492    0.73652    1.000
    Si2302   Si       0.39997    0.54275    0.66014    1.000
    N2303    N        0.41128    0.58042    0.64440    1.000
    N2304    N        0.46546    0.57365    0.68618    1.000
    Si2305   Si       0.31911    0.57570    0.81427    1.000
    N2306    N        0.29330    0.54321    0.80186    1.000
    N2307    N        0.36055    0.56630    0.81708    1.000
    N2308    N        0.41968    0.56176    0.77192    1.000
    N2309    N        0.41663    0.57362    0.84205    1.000
    N2310    N        0.47344    0.56424    0.81052    1.000
    Si2311   Si       0.45767    0.57370    0.85234    1.000
    Si2312   Si       0.45224    0.58644    0.78049    1.000
    Si2313   Si       0.39953    0.54452    0.80769    1.000
    Si2314   Si       0.37804    0.59204    0.84760    1.000
    N2315    N        0.31251    0.57884    0.92167    1.000
    Si2316   Si       0.27658    0.56398    0.93890    1.000
    N2317    N        0.28604    0.54375    0.97412    1.000
    N2318    N        0.25351    0.54588    0.90702    1.000
    Si2319   Si       0.35284    0.55814    0.91596    1.000
    N2320    N        0.45550    0.54509    0.95492    1.000
    Si2321   Si       0.46657    0.57430    0.92521    1.000
    N2322    N        0.47047    0.55207    0.88793    1.000
    N2323    N        0.37243    0.56706    0.95072    1.000
    N2324    N        0.36304    0.58971    0.88684    1.000
    Si2325   Si       0.36499    0.59457    0.98150    1.000
    N2326    N        0.30662    0.59262    0.85326    1.000
    N2327    N        0.26989    0.59329    0.74486    1.000
    N2328    N        0.27145    0.62644    0.02066    1.000
    Si2329   Si       0.33162    0.62103    0.08470    1.000
    N2330    N        0.28464    0.62111    0.08790    1.000
    Si2331   Si       0.31231    0.63705    0.00760    1.000
    Si2332   Si       0.24756    0.64216    0.09709    1.000
    N2333    N        0.33464    0.64512    0.04555    1.000
    Si2334   Si       0.42787    0.60513    0.02452    1.000
    N2335    N        0.43588    0.62466    0.06211    1.000
    Si2336   Si       0.28253    0.64452    0.18690    1.000
    N2337    N        0.33944    0.61102    0.21648    1.000
    Si2338   Si       0.34380    0.64690    0.14526    1.000
    N2339    N        0.33608    0.60662    0.13237    1.000
    N2340    N        0.27891    0.60286    0.17837    1.000
    N2341    N        0.28817    0.64750    0.22877    1.000
    N2342    N        0.45180    0.64364    0.16978    1.000
    Si2343   Si       0.37740    0.62040    0.19884    1.000
    Si2344   Si       0.41888    0.64322    0.14331    1.000
    N2345    N        0.37997    0.65311    0.16870    1.000
    N2346    N        0.40364    0.63836    0.22803    1.000
    N2347    N        0.40951    0.60233    0.12676    1.000
    N2348    N        0.24034    0.65310    0.18318    1.000
    Si2349   Si       0.26629    0.59999    0.05533    1.000
    N2350    N        0.32622    0.59615    0.99641    1.000
    N2351    N        0.31471    0.61378    0.29198    1.000
    Si2352   Si       0.35143    0.60491    0.31274    1.000
    Si2353   Si       0.32025    0.63025    0.25337    1.000
    N2354    N        0.36572    0.62312    0.34847    1.000
    N2355    N        0.38456    0.61595    0.28665    1.000
    N2356    N        0.43575    0.61431    0.35507    1.000
    N2357    N        0.47023    0.60724    0.29329    1.000
    Si2358   Si       0.38774    0.65386    0.26665    1.000
    N2359    N        0.27865    0.62728    0.38397    1.000
    N2360    N        0.30875    0.62540    0.44300    1.000
    Si2361   Si       0.34927    0.63144    0.42352    1.000
    Si2362   Si       0.31193    0.61806    0.48462    1.000
    N2363    N        0.37033    0.64421    0.46020    1.000
    Si2364   Si       0.41140    0.64701    0.44284    1.000
    Si2365   Si       0.46753    0.63545    0.37500    1.000
    N2366    N        0.48891    0.60816    0.40286    1.000
    Si2367   Si       0.39690    0.60455    0.37368    1.000
    N2368    N        0.43171    0.61347    0.45854    1.000
    N2369    N        0.39318    0.63650    0.40313    1.000
    N2370    N        0.23500    0.64621    0.32719    1.000
    Si2371   Si       0.34192    0.62814    0.61073    1.000
    N2372    N        0.32452    0.65247    0.50775    1.000
    N2373    N        0.30715    0.60415    0.61232    1.000
    N2374    N        0.26845    0.60864    0.49442    1.000
    N2375    N        0.37293    0.61034    0.58734    1.000
    N2376    N        0.46118    0.63692    0.51750    1.000
    Si2377   Si       0.46870    0.63332    0.60565    1.000
    N2378    N        0.39548    0.63645    0.52350    1.000
    N2379    N        0.43498    0.61647    0.58374    1.000
    Si2380   Si       0.40175    0.63677    0.56699    1.000
    Si2381   Si       0.42732    0.61267    0.50357    1.000
    N2382    N        0.34240    0.61232    0.71961    1.000
    N2383    N        0.28690    0.62193    0.67306    1.000
    N2384    N        0.35046    0.63574    0.65326    1.000
    Si2385   Si       0.32817    0.60961    0.67795    1.000
    Si2386   Si       0.26778    0.60872    0.63489    1.000
    Si2387   Si       0.43710    0.60304    0.66974    1.000
    N2388    N        0.46075    0.63200    0.64825    1.000
    N2389    N        0.41635    0.61562    0.70519    1.000
    Si2390   Si       0.38197    0.63088    0.72473    1.000
    Si2391   Si       0.27371    0.62376    0.77857    1.000
    Si2392   Si       0.34919    0.63704    0.79534    1.000
    Si2393   Si       0.27105    0.61793    0.85290    1.000
    N2394    N        0.31788    0.61055    0.78521    1.000
    N2395    N        0.25472    0.60812    0.81413    1.000
    Si2396   Si       0.41513    0.63498    0.95469    1.000
    N2397    N        0.36972    0.63207    0.83482    1.000
    N2398    N        0.44983    0.63161    0.79789    1.000
    N2399    N        0.38380    0.63688    0.76683    1.000
    Si2400   Si       0.46398    0.64475    0.83862    1.000
    N2401    N        0.48144    0.61087    0.85891    1.000
    N2402    N        0.42915    0.65151    0.86437    1.000
    N2403    N        0.48097    0.59695    0.75173    1.000
    Si2404   Si       0.44774    0.64988    0.90261    1.000
    N2405    N        0.27821    0.62941    0.89467    1.000
    Si2406   Si       0.31926    0.60900    0.89307    1.000
    N2407    N        0.33326    0.65238    0.90639    1.000
    N2408    N        0.43093    0.63746    0.99480    1.000
    N2409    N        0.25043    0.59879    0.95033    1.000
    N2410    N        0.37236    0.63445    0.96258    1.000
    N2411    N        0.43885    0.61147    0.92586    1.000
    Si2412   Si       0.34529    0.68425    0.06728    1.000
    N2413    N        0.26225    0.70350    0.01019    1.000
    N2414    N        0.33846    0.66289    0.10631    1.000
    N2415    N        0.30999    0.70757    0.07382    1.000
    Si2416   Si       0.24773    0.66582    0.02202    1.000
    Si2417   Si       0.30176    0.69033    0.11647    1.000
    N2418    N        0.25872    0.68197    0.11835    1.000
    N2419    N        0.44311    0.68908    0.04034    1.000
    N2420    N        0.42716    0.67112    0.11122    1.000
    Si2421   Si       0.46182    0.66559    0.00594    1.000
    Si2422   Si       0.44878    0.66339    0.07557    1.000
    N2423    N        0.38336    0.70524    0.06685    1.000
    Si2424   Si       0.40926    0.70927    0.10441    1.000
    N2425    N        0.48834    0.67787    0.08080    1.000
    N2426    N        0.31091    0.66650    0.16327    1.000
    Si2427   Si       0.31258    0.70941    0.18170    1.000
    N2428    N        0.27837    0.71320    0.20908    1.000
    Si2429   Si       0.27254    0.68505    0.24362    1.000
    Si2430   Si       0.43621    0.65850    0.20943    1.000
    Si2431   Si       0.38463    0.69813    0.17425    1.000
    N2432    N        0.47207    0.66322    0.23445    1.000
    N2433    N        0.41766    0.69805    0.20379    1.000
    N2434    N        0.28502    0.68679    0.28333    1.000
    N2435    N        0.28437    0.69125    0.35302    1.000
    Si2436   Si       0.32588    0.69550    0.28318    1.000
    Si2437   Si       0.25902    0.68404    0.31825    1.000
    N2438    N        0.34707    0.66516    0.26089    1.000
    N2439    N        0.34524    0.70052    0.32373    1.000
    N2440    N        0.39837    0.69065    0.35398    1.000
    N2441    N        0.40487    0.69188    0.28007    1.000
    Si2442   Si       0.38763    0.71029    0.31701    1.000
    Si2443   Si       0.34446    0.70915    0.41745    1.000
    N2444    N        0.33643    0.66649    0.39594    1.000
    N2445    N        0.26806    0.68656    0.42324    1.000
    Si2446   Si       0.29249    0.66895    0.39065    1.000
    N2447    N        0.26505    0.70187    0.49236    1.000
    N2448    N        0.38758    0.70393    0.41958    1.000
    Si2449   Si       0.40314    0.71218    0.45884    1.000
    N2450    N        0.43249    0.68064    0.46386    1.000
    Si2451   Si       0.37079    0.66106    0.37026    1.000
    N2452    N        0.37645    0.70098    0.49010    1.000
    N2453    N        0.45766    0.67715    0.38868    1.000
    Si2454   Si       0.42057    0.70181    0.38990    1.000
    N2455    N        0.32430    0.71796    0.45577    1.000
    N2456    N        0.33139    0.66967    0.59937    1.000
    Si2457   Si       0.29367    0.68130    0.52041    1.000
    Si2458   Si       0.28980    0.67814    0.59497    1.000
    N2459    N        0.27384    0.66754    0.55627    1.000
    Si2460   Si       0.36737    0.65972    0.50041    1.000
    Si2461   Si       0.36716    0.69443    0.60475    1.000
    Si2462   Si       0.43695    0.69981    0.57690    1.000
    N2463    N        0.46856    0.67806    0.59582    1.000
    N2464    N        0.40039    0.67658    0.58353    1.000
    N2465    N        0.43619    0.70354    0.53251    1.000
    Si2466   Si       0.45173    0.67757    0.50194    1.000
    N2467    N        0.31238    0.68542    0.68425    1.000
    Si2468   Si       0.35231    0.67470    0.67110    1.000
    N2469    N        0.25016    0.69412    0.68364    1.000
    Si2470   Si       0.27684    0.66321    0.66888    1.000
    N2471    N        0.26416    0.65994    0.62594    1.000
    N2472    N        0.47667    0.69415    0.68622    1.000
    Si2473   Si       0.47175    0.68696    0.72972    1.000
    Si2474   Si       0.39972    0.69847    0.72628    1.000
    N2475    N        0.37641    0.66956    0.70643    1.000
    N2476    N        0.37014    0.70440    0.64717    1.000
    Si2477   Si       0.28926    0.68417    0.80829    1.000
    N2478    N        0.33064    0.67660    0.79939    1.000
    N2479    N        0.26640    0.66576    0.77507    1.000
    N2480    N        0.28663    0.66124    0.84446    1.000
    Si2481   Si       0.24163    0.69854    0.75722    1.000
    Si2482   Si       0.36201    0.70600    0.79548    1.000
    N2483    N        0.39877    0.68407    0.80906    1.000
    Si2484   Si       0.39196    0.66639    0.84881    1.000
    N2485    N        0.48165    0.68266    0.83713    1.000
    Si2486   Si       0.41780    0.65884    0.78044    1.000
    N2487    N        0.43250    0.67808    0.74413    1.000
    Si2488   Si       0.29674    0.70905    0.98463    1.000
    Si2489   Si       0.29689    0.67217    0.88597    1.000
    Si2490   Si       0.34323    0.66279    0.94783    1.000
    N2491    N        0.31046    0.66767    0.97779    1.000
    N2492    N        0.26062    0.69231    0.90505    1.000
    N2493    N        0.35351    0.70634    0.94424    1.000
    N2494    N        0.42125    0.67177    0.93125    1.000
    Si2495   Si       0.42488    0.70573    0.95774    1.000
    N2496    N        0.37915    0.69995    0.87048    1.000
    N2497    N        0.46445    0.69750    0.97753    1.000
    N2498    N        0.49106    0.66130    0.89861    1.000
    Si2499   Si       0.31349    0.74300    0.04516    1.000
    N2500    N        0.32843    0.72599    0.00865    1.000
    N2501    N        0.27615    0.76437    0.03499    1.000
    Si2502   Si       0.24278    0.73997    0.02696    1.000
    N2503    N        0.32600    0.77169    0.07633    1.000
    Si2504   Si       0.31249    0.76296    0.11816    1.000
    N2505    N        0.44558    0.73348    0.08820    1.000
    N2506    N        0.40931    0.76614    0.04388    1.000
    Si2507   Si       0.40985    0.71950    0.03399    1.000
    Si2508   Si       0.48090    0.71888    0.06561    1.000
    N2509    N        0.39370    0.75621    0.24260    1.000
    N2510    N        0.31054    0.72563    0.14047    1.000
    Si2511   Si       0.35079    0.74715    0.22798    1.000
    N2512    N        0.35134    0.71754    0.19740    1.000
    N2513    N        0.39173    0.72563    0.13988    1.000
    Si2514   Si       0.38789    0.76949    0.14365    1.000
    N2515    N        0.29756    0.75633    0.32380    1.000
    N2516    N        0.33332    0.73148    0.26422    1.000
    Si2517   Si       0.31194    0.76481    0.28548    1.000
    Si2518   Si       0.31397    0.72237    0.34855    1.000
    N2519    N        0.39509    0.75347    0.31813    1.000
    N2520    N        0.45747    0.72955    0.24966    1.000
    Si2521   Si       0.46798    0.77187    0.25096    1.000
    N2522    N        0.48738    0.72629    0.34491    1.000
    Si2523   Si       0.41721    0.71719    0.24487    1.000
    Si2524   Si       0.47177    0.75756    0.36917    1.000
    N2525    N        0.26971    0.75337    0.44317    1.000
    Si2526   Si       0.30025    0.76657    0.41274    1.000
    N2527    N        0.32349    0.73592    0.38989    1.000
    Si2528   Si       0.28195    0.71345    0.45442    1.000
    Si2529   Si       0.42002    0.77560    0.41546    1.000
    N2530    N        0.35152    0.77021    0.49605    1.000
    Si2531   Si       0.34178    0.72726    0.49428    1.000
    N2532    N        0.43803    0.74230    0.39158    1.000
    N2533    N        0.40855    0.75641    0.45511    1.000
    Si2534   Si       0.31888    0.73711    0.56722    1.000
    N2535    N        0.28739    0.72210    0.59739    1.000
    N2536    N        0.35792    0.73416    0.58722    1.000
    N2537    N        0.25772    0.76964    0.51254    1.000
    N2538    N        0.32012    0.71694    0.53043    1.000
    N2539    N        0.41363    0.73387    0.70361    1.000
    N2540    N        0.44748    0.74238    0.57778    1.000
    Si2541   Si       0.44047    0.74725    0.53459    1.000
    Si2542   Si       0.47957    0.75894    0.60058    1.000
    N2543    N        0.47390    0.75930    0.51044    1.000
    Si2544   Si       0.37054    0.77068    0.60678    1.000
    Si2545   Si       0.26608    0.74566    0.62675    1.000
    Si2546   Si       0.28365    0.72001    0.69709    1.000
    N2547    N        0.28849    0.74866    0.66497    1.000
    N2548    N        0.35174    0.75813    0.69162    1.000
    N2549    N        0.26882    0.73139    0.73634    1.000
    Si2550   Si       0.36312    0.75471    0.73268    1.000
    N2551    N        0.48559    0.72900    0.73799    1.000
    Si2552   Si       0.38535    0.74053    0.66836    1.000
    Si2553   Si       0.45392    0.75139    0.71326    1.000
    N2554    N        0.47498    0.76594    0.67995    1.000
    N2555    N        0.40113    0.76890    0.63942    1.000
    N2556    N        0.28305    0.72490    0.82099    1.000
    Si2557   Si       0.31597    0.74057    0.84637    1.000
    Si2558   Si       0.24483    0.74898    0.81429    1.000
    N2559    N        0.32764    0.76603    0.75942    1.000
    N2560    N        0.35520    0.74198    0.82156    1.000
    Si2561   Si       0.28458    0.77019    0.75295    1.000
    N2562    N        0.45841    0.75693    0.79513    1.000
    N2563    N        0.42613    0.75887    0.86133    1.000
    Si2564   Si       0.38621    0.74175    0.85342    1.000
    N2565    N        0.37234    0.71571    0.75487    1.000
    N2566    N        0.25958    0.76227    0.89366    1.000
    Si2567   Si       0.27956    0.72942    0.91234    1.000
    N2568    N        0.28998    0.73781    0.95350    1.000
    Si2569   Si       0.36075    0.73082    0.98040    1.000
    N2570    N        0.31336    0.71698    0.88383    1.000
    N2571    N        0.36084    0.75909    0.88648    1.000
    Si2572   Si       0.35243    0.71799    0.90310    1.000
    N2573    N        0.36437    0.77345    0.97425    1.000
    Si2574   Si       0.44677    0.75693    0.90086    1.000
    N2575    N        0.41899    0.74178    0.93096    1.000
    N2576    N        0.48234    0.73127    0.89471    1.000
    N2577    N        0.40002    0.71424    0.99205    1.000
    Si2578   Si       0.26583    0.78835    0.07011    1.000
    Si2579   Si       0.32998    0.81529    0.06891    1.000
    N2580    N        0.35093    0.82273    0.03083    1.000
    N2581    N        0.27203    0.77932    0.11259    1.000
    N2582    N        0.28589    0.82681    0.06174    1.000
    Si2583   Si       0.42903    0.79857    0.02112    1.000
    N2584    N        0.46340    0.79534    0.05243    1.000
    N2585    N        0.41608    0.78747    0.11455    1.000
    N2586    N        0.33744    0.78695    0.21682    1.000
    Si2587   Si       0.34936    0.80389    0.18051    1.000
    N2588    N        0.34507    0.78120    0.14417    1.000
    N2589    N        0.39620    0.80059    0.17575    1.000
    N2590    N        0.45072    0.79146    0.21634    1.000
    N2591    N        0.46335    0.82764    0.15684    1.000
    Si2592   Si       0.40804    0.79064    0.21798    1.000
    Si2593   Si       0.42325    0.82182    0.14292    1.000
    Si2594   Si       0.47044    0.82758    0.20014    1.000
    Si2595   Si       0.23816    0.78303    0.13710    1.000
    Si2596   Si       0.43657    0.77408    0.07898    1.000
    Si2597   Si       0.29168    0.79204    0.34715    1.000
    N2598    N        0.34279    0.79767    0.28566    1.000
    N2599    N        0.33388    0.80460    0.35356    1.000
    N2600    N        0.27100    0.82257    0.32685    1.000
    Si2601   Si       0.35047    0.82571    0.32007    1.000
    N2602    N        0.28365    0.78262    0.25942    1.000
    Si2603   Si       0.31821    0.81527    0.25063    1.000
    N2604    N        0.45130    0.79176    0.35209    1.000
    Si2605   Si       0.47135    0.81135    0.31809    1.000
    N2606    N        0.39379    0.81655    0.31857    1.000
    N2607    N        0.44617    0.79543    0.28402    1.000
    Si2608   Si       0.40697    0.78545    0.34557    1.000
    Si2609   Si       0.38742    0.78202    0.28144    1.000
    N2610    N        0.39733    0.81903    0.24963    1.000
    N2611    N        0.32226    0.80284    0.42312    1.000
    Si2612   Si       0.35376    0.81363    0.39188    1.000
    N2613    N        0.27177    0.77967    0.38381    1.000
    N2614    N        0.30159    0.81879    0.49009    1.000
    N2615    N        0.44699    0.81145    0.41915    1.000
    Si2616   Si       0.39309    0.77992    0.48603    1.000
    Si2617   Si       0.46877    0.82172    0.38141    1.000
    N2618    N        0.39136    0.79193    0.38679    1.000
    N2619    N        0.39551    0.82321    0.47785    1.000
    Si2620   Si       0.23999    0.78536    0.25711    1.000
    Si2621   Si       0.30398    0.79594    0.59491    1.000
    Si2622   Si       0.26154    0.81219    0.51035    1.000
    Si2623   Si       0.32935    0.79823    0.51949    1.000
    N2624    N        0.26576    0.78390    0.60926    1.000
    N2625    N        0.31694    0.77960    0.55804    1.000
    N2626    N        0.35536    0.83034    0.53223    1.000
    N2627    N        0.39202    0.80318    0.58689    1.000
    Si2628   Si       0.39585    0.81453    0.54535    1.000
    N2629    N        0.41076    0.77752    0.52612    1.000
    N2630    N        0.30798    0.81687    0.67565    1.000
    N2631    N        0.33520    0.78846    0.62702    1.000
    N2632    N        0.28191    0.81536    0.74022    1.000
    Si2633   Si       0.32084    0.77663    0.66796    1.000
    N2634    N        0.46040    0.79490    0.61936    1.000
    N2635    N        0.45470    0.78555    0.73579    1.000
    Si2636   Si       0.41885    0.80530    0.62153    1.000
    Si2637   Si       0.48703    0.79980    0.65310    1.000
    Si2638   Si       0.32816    0.83303    0.63826    1.000
    N2639    N        0.30540    0.78412    0.84833    1.000
    Si2640   Si       0.32606    0.81735    0.83398    1.000
    Si2641   Si       0.27205    0.82130    0.78267    1.000
    N2642    N        0.25815    0.77775    0.78533    1.000
    Si2643   Si       0.35801    0.77329    0.78894    1.000
    N2644    N        0.36178    0.80974    0.80966    1.000
    N2645    N        0.43067    0.81016    0.80859    1.000
    Si2646   Si       0.43128    0.78355    0.77153    1.000
    Si2647   Si       0.45316    0.77726    0.83122    1.000
    N2648    N        0.39115    0.77577    0.76070    1.000
    N2649    N        0.38887    0.80916    0.92279    1.000
    Si2650   Si       0.34725    0.81200    0.98714    1.000
    N2651    N        0.24735    0.79754    0.95173    1.000
    Si2652   Si       0.28857    0.78209    0.95544    1.000
    Si2653   Si       0.28574    0.79686    0.88395    1.000
    N2654    N        0.31299    0.79482    0.91971    1.000
    Si2655   Si       0.35274    0.79850    0.89931    1.000
    N2656    N        0.30523    0.80956    0.98634    1.000
    N2657    N        0.25893    0.83039    0.88571    1.000
    Si2658   Si       0.40382    0.77974    0.95044    1.000
    N2659    N        0.46075    0.79354    0.91861    1.000
    N2660    N        0.43348    0.78734    0.98041    1.000
    Si2661   Si       0.47221    0.78817    0.96038    1.000
    N2662    N        0.34538    0.83134    0.87103    1.000
    N2663    N        0.28742    0.87433    0.01418    1.000
    Si2664   Si       0.27213    0.86349    0.08343    1.000
    Si2665   Si       0.28133    0.83198    0.01518    1.000
    N2666    N        0.35781    0.89005    0.03950    1.000
    N2667    N        0.34500    0.83812    0.09986    1.000
    Si2668   Si       0.43099    0.88716    0.10358    1.000
    N2669    N        0.45501    0.88157    0.06834    1.000
    Si2670   Si       0.44016    0.87488    0.02677    1.000
    Si2671   Si       0.37743    0.85837    0.01815    1.000
    N2672    N        0.41737    0.83934    0.02487    1.000
    N2673    N        0.26992    0.86107    0.12473    1.000
    N2674    N        0.33967    0.85129    0.23648    1.000
    Si2675   Si       0.32223    0.86856    0.20021    1.000
    N2676    N        0.34395    0.84447    0.17041    1.000
    N2677    N        0.27916    0.86208    0.19916    1.000
    Si2678   Si       0.25331    0.85770    0.16363    1.000
    Si2679   Si       0.25548    0.84784    0.23407    1.000
    Si2680   Si       0.36186    0.85979    0.13203    1.000
    N2681    N        0.46659    0.86164    0.22745    1.000
    Si2682   Si       0.38131    0.85820    0.23858    1.000
    N2683    N        0.40648    0.85821    0.12644    1.000
    N2684    N        0.39979    0.88540    0.21021    1.000
    Si2685   Si       0.28820    0.85780    0.30718    1.000
    N2686    N        0.32847    0.86403    0.32430    1.000
    N2687    N        0.28398    0.84579    0.26639    1.000
    Si2688   Si       0.33952    0.88652    0.35960    1.000
    N2689    N        0.39604    0.87236    0.27913    1.000
    N2690    N        0.46101    0.85201    0.30062    1.000
    Si2691   Si       0.46001    0.87775    0.33634    1.000
    Si2692   Si       0.42065    0.83474    0.28562    1.000
    Si2693   Si       0.48782    0.86292    0.26660    1.000
    N2694    N        0.34604    0.86328    0.45828    1.000
    N2695    N        0.27917    0.86107    0.43622    1.000
    N2696    N        0.35577    0.85802    0.39138    1.000
    Si2697   Si       0.31272    0.83595    0.45071    1.000
    Si2698   Si       0.36913    0.87947    0.42597    1.000
    N2699    N        0.46701    0.84251    0.48087    1.000
    N2700    N        0.41284    0.87278    0.43385    1.000
    N2701    N        0.44881    0.86144    0.37530    1.000
    Si2702   Si       0.43037    0.83773    0.45446    1.000
    Si2703   Si       0.44405    0.88637    0.40927    1.000
    Si2704   Si       0.36824    0.85385    0.49525    1.000
    Si2705   Si       0.27466    0.86145    0.57429    1.000
    N2706    N        0.30379    0.87455    0.54364    1.000
    Si2707   Si       0.33989    0.85708    0.56370    1.000
    N2708    N        0.24683    0.84874    0.60720    1.000
    N2709    N        0.31282    0.83891    0.59652    1.000
    N2710    N        0.24986    0.83748    0.54194    1.000
    Si2711   Si       0.46696    0.84695    0.52483    1.000
    N2712    N        0.42528    0.84611    0.54086    1.000
    N2713    N        0.37416    0.87460    0.58295    1.000
    Si2714   Si       0.40450    0.88324    0.55118    1.000
    N2715    N        0.48385    0.88431    0.53797    1.000
    N2716    N        0.37619    0.89175    0.51648    1.000
    N2717    N        0.31519    0.87491    0.70834    1.000
    N2718    N        0.25110    0.85486    0.68706    1.000
    N2719    N        0.35405    0.86303    0.65132    1.000
    Si2720   Si       0.28776    0.84099    0.70655    1.000
    Si2721   Si       0.34567    0.89177    0.68386    1.000
    N2722    N        0.41975    0.84763    0.63222    1.000
    Si2723   Si       0.38829    0.87660    0.62556    1.000
    N2724    N        0.47254    0.84834    0.74152    1.000
    N2725    N        0.45021    0.88753    0.68155    1.000
    Si2726   Si       0.45717    0.86678    0.64170    1.000
    Si2727   Si       0.47626    0.88495    0.71570    1.000
    N2728    N        0.30237    0.84180    0.80835    1.000
    Si2729   Si       0.31800    0.88346    0.80732    1.000
    N2730    N        0.46377    0.84891    0.88238    1.000
    Si2731   Si       0.36568    0.86937    0.86845    1.000
    Si2732   Si       0.45207    0.86891    0.77423    1.000
    N2733    N        0.40757    0.86310    0.77376    1.000
    N2734    N        0.40137    0.86153    0.84554    1.000
    Si2735   Si       0.44590    0.86983    0.84874    1.000
    N2736    N        0.46936    0.87184    0.81405    1.000
    Si2737   Si       0.39703    0.83699    0.80866    1.000
    Si2738   Si       0.24532    0.87067    0.88524    1.000
    N2739    N        0.42950    0.87203    0.93718    1.000
    N2740    N        0.37271    0.84711    0.97538    1.000
    Si2741   Si       0.39101    0.85039    0.93728    1.000
    N2742    N        0.46510    0.88156    0.99227    1.000
    N2743    N        0.36887    0.87863    0.90994    1.000
    Si2744   Si       0.46187    0.88358    0.90780    1.000
    N2745    N        0.33943    0.88861    0.76967    1.000
    N2746    N        0.30530    0.93304    0.01735    1.000
    Si2747   Si       0.26647    0.91606    0.00914    1.000
    N2748    N        0.29578    0.89920    0.07758    1.000
    Si2749   Si       0.31324    0.92240    0.11015    1.000
    Si2750   Si       0.31661    0.89560    0.04033    1.000
    N2751    N        0.40169    0.91501    0.08736    1.000
    Si2752   Si       0.39036    0.92042    0.04555    1.000
    N2753    N        0.41098    0.90187    0.01115    1.000
    Si2754   Si       0.37459    0.92870    0.11639    1.000
    N2755    N        0.28760    0.94464    0.13638    1.000
    N2756    N        0.34556    0.89879    0.12654    1.000
    N2757    N        0.33598    0.90959    0.20246    1.000
    N2758    N        0.27376    0.93394    0.22388    1.000
    Si2759   Si       0.31373    0.94469    0.21672    1.000
    N2760    N        0.45570    0.90794    0.13188    1.000
    N2761    N        0.39436    0.92983    0.15691    1.000
    Si2762   Si       0.43693    0.93730    0.15772    1.000
    Si2763   Si       0.44155    0.89771    0.22213    1.000
    N2764    N        0.45609    0.92877    0.19500    1.000
    Si2765   Si       0.37716    0.91854    0.19422    1.000
    Si2766   Si       0.24041    0.90766    0.21221    1.000
    Si2767   Si       0.28261    0.91990    0.34128    1.000
    N2768    N        0.30958    0.94152    0.31379    1.000
    Si2769   Si       0.35152    0.94630    0.31908    1.000
    Si2770   Si       0.45811    0.94648    0.42138    1.000
    N2771    N        0.26017    0.89059    0.31625    1.000
    N2772    N        0.36624    0.92036    0.35088    1.000
    Si2773   Si       0.41065    0.92980    0.35587    1.000
    Si2774   Si       0.41156    0.91188    0.28924    1.000
    N2775    N        0.44290    0.92013    0.26105    1.000
    N2776    N        0.43152    0.90704    0.32652    1.000
    N2777    N        0.37942    0.93938    0.28757    1.000
    Si2778   Si       0.48214    0.93506    0.26688    1.000
    N2779    N        0.30313    0.90286    0.37657    1.000
    N2780    N        0.28995    0.93156    0.44127    1.000
    Si2781   Si       0.27795    0.89933    0.41224    1.000
    Si2782   Si       0.33047    0.94900    0.44196    1.000
    Si2783   Si       0.27165    0.94680    0.47768    1.000
    N2784    N        0.33872    0.94707    0.48401    1.000
    N2785    N        0.47494    0.90890    0.43316    1.000
    N2786    N        0.36371    0.92292    0.42667    1.000
    N2787    N        0.42502    0.92474    0.39610    1.000
    N2788    N        0.26336    0.90516    0.57960    1.000
    N2789    N        0.26359    0.91890    0.50990    1.000
    Si2790   Si       0.28831    0.91532    0.54443    1.000
    Si2791   Si       0.35934    0.93164    0.51646    1.000
    N2792    N        0.32636    0.93662    0.54826    1.000
    Si2793   Si       0.24522    0.94075    0.59637    1.000
    N2794    N        0.43024    0.91676    0.56148    1.000
    Si2795   Si       0.47210    0.90839    0.57283    1.000
    Si2796   Si       0.41393    0.91030    0.68308    1.000
    N2797    N        0.46857    0.88960    0.60852    1.000
    N2798    N        0.33569    0.93193    0.67131    1.000
    N2799    N        0.27081    0.92628    0.68115    1.000
    Si2800   Si       0.25102    0.89538    0.70193    1.000
    Si2801   Si       0.30819    0.90352    0.74040    1.000
    N2802    N        0.31887    0.94488    0.73348    1.000
    N2803    N        0.38309    0.89526    0.71088    1.000
    N2804    N        0.39461    0.91508    0.64517    1.000
    Si2805   Si       0.43664    0.94191    0.74371    1.000
    N2806    N        0.48513    0.95072    0.57506    1.000
    Si2807   Si       0.36395    0.94950    0.63978    1.000
    N2808    N        0.26590    0.89707    0.74429    1.000
    N2809    N        0.28391    0.90877    0.80918    1.000
    Si2810   Si       0.34873    0.93667    0.84721    1.000
    N2811    N        0.34096    0.89346    0.84052    1.000
    Si2812   Si       0.25157    0.89165    0.78526    1.000
    N2813    N        0.37901    0.93530    0.87877    1.000
    N2814    N        0.39790    0.93043    0.94929    1.000
    Si2815   Si       0.43098    0.90334    0.96926    1.000
    N2816    N        0.40199    0.93065    0.76916    1.000
    Si2817   Si       0.38048    0.89352    0.75563    1.000
    N2818    N        0.46195    0.90700    0.74940    1.000
    Si2819   Si       0.41989    0.94375    0.87062    1.000
    N2820    N        0.24810    0.91814    0.97033    1.000
    Si2821   Si       0.29340    0.93381    0.89664    1.000
    N2822    N        0.32641    0.93718    0.92508    1.000
    N2823    N        0.28020    0.89441    0.88954    1.000
    Si2824   Si       0.36642    0.92024    0.91997    1.000
    N2825    N        0.44347    0.90709    0.87389    1.000
    N2826    N        0.46024    0.93471    0.95711    1.000
    Si2827   Si       0.31155    0.97448    0.00771    1.000
    N2828    N        0.25631    0.98303    0.08742    1.000
    N2829    N        0.32234    0.99673    0.04340    1.000
    Si2830   Si       0.35597    0.98254    0.06598    1.000
    N2831    N        0.34594    0.95370    0.09607    1.000
    Si2832   Si       0.25045    0.95608    0.12097    1.000
    N2833    N        0.38145    0.96160    0.03629    1.000
    Si2834   Si       0.38387    0.98728    0.99991    1.000
    N2835    N        0.31781    0.97856    0.18918    1.000
    Si2836   Si       0.27696    0.98333    0.16898    1.000
    N2837    N        0.26433    0.99875    0.21093    1.000
    Si2838   Si       0.36145    0.98848    0.18968    1.000
    Si2839   Si       0.24303    0.96922    0.23783    1.000
    N2840    N        0.44373    0.97742    0.14318    1.000
    N2841    N        0.38078    0.95649    0.21519    1.000
    N2842    N        0.38291    0.00363    0.15607    1.000
    Si2843   Si       0.48527    0.97836    0.13531    1.000
    N2844    N        0.25260    0.96613    0.28098    1.000
    N2845    N        0.35408    0.98974    0.32581    1.000
    Si2846   Si       0.29670    0.97499    0.28332    1.000
    Si2847   Si       0.24816    0.98106    0.32286    1.000
    N2848    N        0.32758    0.96565    0.25311    1.000
    N2849    N        0.28411    0.00549    0.31915    1.000
    Si2850   Si       0.37272    0.96761    0.25514    1.000
    N2851    N        0.41580    0.97101    0.34417    1.000
    Si2852   Si       0.39717    0.99509    0.31417    1.000
    N2853    N        0.39280    0.00183    0.27116    1.000
    N2854    N        0.32333    0.99164    0.43253    1.000
    Si2855   Si       0.43818    0.98993    0.48161    1.000
    N2856    N        0.38453    0.98540    0.39817    1.000
    Si2857   Si       0.41172    0.00900    0.37129    1.000
    N2858    N        0.42720    0.96556    0.44654    1.000
    Si2859   Si       0.31186    0.01058    0.47377    1.000
    N2860    N        0.25714    0.95123    0.35437    1.000
    Si2861   Si       0.39659    0.94980    0.41811    1.000
    N2862    N        0.28008    0.98695    0.49433    1.000
    N2863    N        0.26741    0.97129    0.56612    1.000
    Si2864   Si       0.35160    0.96755    0.57142    1.000
    Si2865   Si       0.29402    0.99088    0.59665    1.000
    Si2866   Si       0.26181    0.00220    0.53425    1.000
    N2867    N        0.32044    0.95865    0.61753    1.000
    N2868    N        0.32663    0.00400    0.57075    1.000
    N2869    N        0.43020    0.94717    0.70000    1.000
    N2870    N        0.37287    0.98162    0.67328    1.000
    N2871    N        0.38159    0.96478    0.60386    1.000
    N2872    N        0.43173    0.99522    0.56806    1.000
    Si2873   Si       0.41680    0.99208    0.60816    1.000
    N2874    N        0.45036    0.96482    0.51558    1.000
    Si2875   Si       0.42338    0.95683    0.54938    1.000
    N2876    N        0.38056    0.96356    0.53754    1.000
    Si2877   Si       0.45257    0.97743    0.67793    1.000
    N2878    N        0.45002    0.97852    0.63554    1.000
    N2879    N        0.30574    0.98852    0.67872    1.000
    Si2880   Si       0.29740    0.95066    0.65676    1.000
    N2881    N        0.35137    0.99749    0.73374    1.000
    N2882    N        0.25729    0.96784    0.63431    1.000
    Si2883   Si       0.34005    0.96735    0.70094    1.000
    Si2884   Si       0.23862    0.00687    0.64200    1.000
    N2885    N        0.30280    0.97528    0.79726    1.000
    Si2886   Si       0.31288    0.98200    0.75483    1.000
    Si2887   Si       0.33514    0.99897    0.81647    1.000
    N2888    N        0.30870    0.95531    0.86037    1.000
    N2889    N        0.24135    0.94771    0.84247    1.000
    N2890    N        0.36379    0.96737    0.82042    1.000
    N2891    N        0.46856    0.96880    0.75675    1.000
    N2892    N        0.40862    0.99861    0.77098    1.000
    Si2893   Si       0.47207    0.97512    0.82892    1.000
    Si2894   Si       0.40161    0.96527    0.79760    1.000
    N2895    N        0.42937    0.96075    0.83088    1.000
    N2896    N        0.48934    0.98162    0.86841    1.000
    N2897    N        0.26176    0.96084    0.90911    1.000
    N2898    N        0.34572    0.98149    0.98020    1.000
    Si2899   Si       0.31992    0.97473    0.94671    1.000
    N2900    N        0.28438    0.97774    0.97185    1.000
    Si2901   Si       0.30404    0.99768    0.87744    1.000
    Si2902   Si       0.24692    0.95837    0.95038    1.000
    Si2903   Si       0.45854    0.99849    0.89544    1.000
    Si2904   Si       0.23935    0.97538    0.87448    1.000
    N2905    N        0.41778    0.98963    0.97317    1.000
    Si2906   Si       0.42938    0.96066    0.94389    1.000
    N2907    N        0.43159    0.96825    0.90308    1.000
    Si2908   Si       0.28138    0.94891    0.82590    1.000
    N2909    N        0.55353    0.04825    0.10740    1.000
    Si2910   Si       0.51009    0.05247    0.10543    1.000
    N2911    N        0.60671    0.02301    0.07126    1.000
    N2912    N        0.49902    0.05274    0.06342    1.000
    Si2913   Si       0.58213    0.05864    0.07815    1.000
    N2914    N        0.50546    0.01137    0.11660    1.000
    N2915    N        0.67615    0.04592    0.06095    1.000
    Si2916   Si       0.64226    0.04298    0.08962    1.000
    Si2917   Si       0.71887    0.04304    0.06630    1.000
    Si2918   Si       0.68052    0.04896    0.01556    1.000
    N2919    N        0.72546    0.03909    0.02404    1.000
    N2920    N        0.67039    0.00812    0.00009    1.000
    N2921    N        0.52750    0.04896    0.18263    1.000
    N2922    N        0.59250    0.06198    0.20521    1.000
    Si2923   Si       0.59637    0.01996    0.22019    1.000
    N2924    N        0.65891    0.02494    0.12495    1.000
    Si2925   Si       0.68417    0.04567    0.15415    1.000
    N2926    N        0.72426    0.03399    0.14381    1.000
    Si2927   Si       0.68245    0.06543    0.23301    1.000
    N2928    N        0.72448    0.06334    0.22857    1.000
    N2929    N        0.66403    0.04599    0.19401    1.000
    Si2930   Si       0.54938    0.00275    0.11322    1.000
    Si2931   Si       0.57424    0.02631    0.29187    1.000
    N2932    N        0.60806    0.02467    0.26209    1.000
    N2933    N        0.56238    0.06616    0.29627    1.000
    Si2934   Si       0.64852    0.01105    0.27269    1.000
    N2935    N        0.64897    0.04824    0.34650    1.000
    N2936    N        0.68097    0.04308    0.27041    1.000
    Si2937   Si       0.72527    0.03966    0.26819    1.000
    Si2938   Si       0.68639    0.02543    0.33642    1.000
    N2939    N        0.71578    0.05994    0.34828    1.000
    N2940    N        0.72414    0.01124    0.30926    1.000
    Si2941   Si       0.62341    0.01307    0.34488    1.000
    N2942    N        0.50763    0.03324    0.41515    1.000
    N2943    N        0.54053    0.04195    0.47773    1.000
    Si2944   Si       0.54631    0.04480    0.43273    1.000
    N2945    N        0.58587    0.02753    0.42692    1.000
    N2946    N        0.58260    0.00976    0.33207    1.000
    N2947    N        0.66103    0.04149    0.43627    1.000
    N2948    N        0.72670    0.05014    0.49346    1.000
    Si2949   Si       0.61953    0.05278    0.43486    1.000
    N2950    N        0.72223    0.00992    0.43326    1.000
    Si2951   Si       0.74005    0.04318    0.45308    1.000
    Si2952   Si       0.58451    0.03729    0.56766    1.000
    Si2953   Si       0.50291    0.03139    0.55248    1.000
    N2954    N        0.59795    0.06251    0.53436    1.000
    N2955    N        0.52800    0.06615    0.54930    1.000
    N2956    N        0.49234    0.02149    0.59320    1.000
    N2957    N        0.48943    0.04226    0.66840    1.000
    Si2958   Si       0.48743    0.05051    0.62443    1.000
    N2959    N        0.62461    0.02127    0.58570    1.000
    N2960    N        0.68091    0.04765    0.59006    1.000
    Si2961   Si       0.64205    0.06066    0.60227    1.000
    Si2962   Si       0.71844    0.01404    0.52025    1.000
    N2963    N        0.63038    0.06377    0.64327    1.000
    Si2964   Si       0.52734    0.04806    0.68758    1.000
    N2965    N        0.53713    0.01889    0.72108    1.000
    N2966    N        0.55789    0.05665    0.66339    1.000
    N2967    N        0.61227    0.02988    0.70597    1.000
    Si2968   Si       0.66245    0.06478    0.67258    1.000
    N2969    N        0.72782    0.01168    0.73139    1.000
    Si2970   Si       0.61893    0.06684    0.72722    1.000
    N2971    N        0.67879    0.02626    0.68020    1.000
    Si2972   Si       0.51879    0.04996    0.74837    1.000
    Si2973   Si       0.57379    0.06486    0.49750    1.000
    Si2974   Si       0.53123    0.05667    0.82287    1.000
    N2975    N        0.54254    0.06474    0.78104    1.000
    N2976    N        0.49318    0.06643    0.83871    1.000
    N2977    N        0.54214    0.01706    0.83409    1.000
    N2978    N        0.61372    0.05362    0.84061    1.000
    N2979    N        0.62025    0.04997    0.76896    1.000
    N2980    N        0.73201    0.06077    0.77974    1.000
    Si2981   Si       0.68559    0.05306    0.85127    1.000
    N2982    N        0.73115    0.05013    0.84629    1.000
    N2983    N        0.67207    0.01199    0.85286    1.000
    Si2984   Si       0.62611    0.01262    0.84524    1.000
    N2985    N        0.58688    0.06228    0.97874    1.000
    Si2986   Si       0.58380    0.01382    0.90901    1.000
    Si2987   Si       0.57414    0.02212    0.97844    1.000
    N2988    N        0.53264    0.02091    0.97112    1.000
    Si2989   Si       0.51409    0.02566    0.93142    1.000
    N2990    N        0.58791    0.05660    0.90690    1.000
    N2991    N        0.50242    0.06365    0.91438    1.000
    N2992    N        0.68516    0.05495    0.95242    1.000
    Si2993   Si       0.68745    0.01253    0.95844    1.000
    N2994    N        0.70765    0.02062    0.90606    1.000
    Si2995   Si       0.70684    0.06265    0.91406    1.000
    Si2996   Si       0.51831    0.08955    0.05304    1.000
    Si2997   Si       0.58657    0.09126    0.01132    1.000
    N2998    N        0.49832    0.10611    0.01634    1.000
    N2999    N        0.51360    0.11455    0.09024    1.000
    N3000    N        0.56185    0.08099    0.04710    1.000
    N3001    N        0.61810    0.07842    0.09523    1.000
    N3002    N        0.61503    0.11037    0.03645    1.000
    N3003    N        0.66843    0.08919    0.00505    1.000
    Si3004   Si       0.62168    0.11849    0.07984    1.000
    N3005    N        0.53626    0.09687    0.23435    1.000
    Si3006   Si       0.55377    0.08124    0.19663    1.000
    N3007    N        0.55865    0.11694    0.17297    1.000
    Si3008   Si       0.49346    0.10561    0.23274    1.000
    N3009    N        0.69210    0.08689    0.14346    1.000
    Si3010   Si       0.63204    0.07608    0.19761    1.000
    N3011    N        0.62969    0.10539    0.16783    1.000
    Si3012   Si       0.66422    0.11874    0.14656    1.000
    Si3013   Si       0.73538    0.07851    0.13420    1.000
    N3014    N        0.64767    0.09475    0.23503    1.000
    N3015    N        0.73981    0.07104    0.09106    1.000
    N3016    N        0.56315    0.09946    0.35412    1.000
    Si3017   Si       0.58898    0.09600    0.31820    1.000
    Si3018   Si       0.53327    0.09292    0.27696    1.000
    N3019    N        0.59096    0.11923    0.27931    1.000
    Si3020   Si       0.71243    0.09141    0.49384    1.000
    N3021    N        0.48923    0.08774    0.27354    1.000
    Si3022   Si       0.72764    0.11177    0.29873    1.000
    N3023    N        0.62661    0.10941    0.33578    1.000
    Si3024   Si       0.71192    0.09721    0.36780    1.000
    Si3025   Si       0.64254    0.08498    0.36865    1.000
    Si3026   Si       0.63388    0.10556    0.48499    1.000
    N3027    N        0.67420    0.09682    0.47408    1.000
    N3028    N        0.49208    0.09591    0.47877    1.000
    N3029    N        0.55028    0.08763    0.42763    1.000
    Si3030   Si       0.57690    0.10304    0.39543    1.000
    Si3031   Si       0.53104    0.10810    0.46082    1.000
    N3032    N        0.60863    0.07133    0.47124    1.000
    N3033    N        0.61313    0.07915    0.39975    1.000
    N3034    N        0.72661    0.08094    0.43620    1.000
    Si3035   Si       0.68197    0.08103    0.43360    1.000
    N3036    N        0.67790    0.09359    0.39343    1.000
    N3037    N        0.55621    0.10524    0.49715    1.000
    Si3038   Si       0.53965    0.09162    0.58182    1.000
    N3039    N        0.50850    0.08895    0.61150    1.000
    Si3040   Si       0.60467    0.10277    0.55255    1.000
    Si3041   Si       0.49410    0.08458    0.52285    1.000
    N3042    N        0.72575    0.08482    0.71731    1.000
    Si3043   Si       0.71266    0.06830    0.56960    1.000
    N3044    N        0.63339    0.09832    0.58385    1.000
    N3045    N        0.69847    0.09377    0.53690    1.000
    Si3046   Si       0.68949    0.10913    0.72508    1.000
    Si3047   Si       0.51903    0.12039    0.72617    1.000
    N3048    N        0.58866    0.11817    0.65233    1.000
    N3049    N        0.58603    0.09443    0.72505    1.000
    Si3050   Si       0.58701    0.07511    0.63911    1.000
    N3051    N        0.51307    0.07868    0.71800    1.000
    Si3052   Si       0.58097    0.12812    0.69292    1.000
    N3053    N        0.65817    0.08289    0.71385    1.000
    N3054    N        0.69622    0.08775    0.65619    1.000
    Si3055   Si       0.73578    0.07717    0.67430    1.000
    N3056    N        0.50536    0.12704    0.53730    1.000
    N3057    N        0.57311    0.06737    0.59791    1.000
    Si3058   Si       0.57215    0.09432    0.76673    1.000
    Si3059   Si       0.51228    0.10064    0.85713    1.000
    N3060    N        0.55134    0.08462    0.85062    1.000
    N3061    N        0.60555    0.10943    0.79186    1.000
    Si3062   Si       0.58915    0.07852    0.86963    1.000
    N3063    N        0.54426    0.12721    0.76014    1.000
    N3064    N        0.67610    0.07862    0.88442    1.000
    N3065    N        0.61123    0.11299    0.87322    1.000
    Si3066   Si       0.70515    0.09274    0.79331    1.000
    Si3067   Si       0.62826    0.07495    0.80493    1.000
    N3068    N        0.68986    0.12360    0.76559    1.000
    N3069    N        0.67251    0.07669    0.81477    1.000
    N3070    N        0.73065    0.12333    0.81320    1.000
    Si3071   Si       0.50975    0.10526    0.92714    1.000
    N3072    N        0.55238    0.11070    0.93543    1.000
    Si3073   Si       0.58914    0.08343    0.94031    1.000
    N3074    N        0.69457    0.12471    0.94347    1.000
    Si3075   Si       0.66904    0.09342    0.96242    1.000
    N3076    N        0.63089    0.09758    0.93749    1.000
    Si3077   Si       0.64823    0.11110    0.89876    1.000
    Si3078   Si       0.73010    0.12640    0.92050    1.000
    N3079    N        0.53467    0.15888    0.04288    1.000
    Si3080   Si       0.52813    0.15386    0.08678    1.000
    N3081    N        0.58879    0.14821    0.07954    1.000
    Si3082   Si       0.57992    0.14476    0.03644    1.000
    Si3083   Si       0.50919    0.14686    0.00925    1.000
    Si3084   Si       0.58327    0.18213    0.11003    1.000
    N3085    N        0.59835    0.18253    0.02336    1.000
    Si3086   Si       0.73794    0.13488    0.02063    1.000
    N3087    N        0.72084    0.13045    0.06072    1.000
    Si3088   Si       0.68641    0.14962    0.07799    1.000
    N3089    N        0.65653    0.15739    0.04894    1.000
    Si3090   Si       0.65040    0.12743    0.01834    1.000
    N3091    N        0.65653    0.13159    0.10497    1.000
    N3092    N        0.54339    0.16685    0.12495    1.000
    N3093    N        0.60132    0.14446    0.21669    1.000
    Si3094   Si       0.59938    0.13463    0.17300    1.000
    N3095    N        0.54102    0.17955    0.19741    1.000
    Si3096   Si       0.57432    0.17850    0.22337    1.000
    Si3097   Si       0.53168    0.15257    0.16457    1.000
    N3098    N        0.60710    0.16413    0.14350    1.000
    N3099    N        0.49054    0.14078    0.15668    1.000
    N3100    N        0.67267    0.15751    0.16042    1.000
    Si3101   Si       0.65264    0.17980    0.12542    1.000
    Si3102   Si       0.70171    0.17454    0.18683    1.000
    N3103    N        0.73452    0.14472    0.19195    1.000
    N3104    N        0.71366    0.16236    0.99616    1.000
    N3105    N        0.59124    0.16475    0.32532    1.000
    Si3106   Si       0.56599    0.15463    0.29052    1.000
    Si3107   Si       0.57350    0.17070    0.36266    1.000
    N3108    N        0.53137    0.16501    0.36296    1.000
    N3109    N        0.53155    0.12980    0.30095    1.000
    N3110    N        0.65858    0.17499    0.34874    1.000
    N3111    N        0.64645    0.15309    0.27770    1.000
    Si3112   Si       0.63307    0.15045    0.32154    1.000
    Si3113   Si       0.70032    0.16914    0.34062    1.000
    Si3114   Si       0.68610    0.16473    0.26582    1.000
    N3115    N        0.71217    0.13023    0.26075    1.000
    Si3116   Si       0.69027    0.17893    0.43504    1.000
    Si3117   Si       0.49443    0.16288    0.43225    1.000
    N3118    N        0.58676    0.14469    0.39647    1.000
    N3119    N        0.53020    0.15173    0.45412    1.000
    Si3120   Si       0.60797    0.16023    0.42964    1.000
    N3121    N        0.64971    0.17086    0.41863    1.000
    N3122    N        0.72447    0.15172    0.43892    1.000
    N3123    N        0.61414    0.14130    0.46879    1.000
    Si3124   Si       0.55180    0.18526    0.46974    1.000
    Si3125   Si       0.52800    0.12466    0.34523    1.000
    Si3126   Si       0.62324    0.12578    0.25109    1.000
    N3127    N        0.70578    0.12510    0.33309    1.000
    N3128    N        0.52274    0.16581    0.59405    1.000
    Si3129   Si       0.56595    0.16127    0.58524    1.000
    N3130    N        0.56623    0.17066    0.50889    1.000
    Si3131   Si       0.54480    0.13459    0.52467    1.000
    N3132    N        0.60719    0.15936    0.60065    1.000
    Si3133   Si       0.60935    0.16411    0.50503    1.000
    Si3134   Si       0.48848    0.15704    0.56556    1.000
    N3135    N        0.67190    0.15412    0.57100    1.000
    Si3136   Si       0.64576    0.13483    0.59877    1.000
    N3137    N        0.69494    0.15649    0.50786    1.000
    Si3138   Si       0.67371    0.12954    0.53453    1.000
    Si3139   Si       0.70152    0.18559    0.56999    1.000
    Si3140   Si       0.50101    0.15256    0.67698    1.000
    N3141    N        0.53929    0.13951    0.69369    1.000
    N3142    N        0.61122    0.15961    0.69449    1.000
    Si3143   Si       0.61295    0.15714    0.64786    1.000
    N3144    N        0.72895    0.17335    0.73863    1.000
    N3145    N        0.68791    0.14235    0.70040    1.000
    Si3146   Si       0.69020    0.13093    0.65811    1.000
    N3147    N        0.65243    0.13588    0.64113    1.000
    N3148    N        0.72476    0.14740    0.63883    1.000
    Si3149   Si       0.69448    0.18386    0.71301    1.000
    N3150    N        0.73829    0.16399    0.55579    1.000
    N3151    N        0.56574    0.12349    0.56298    1.000
    N3152    N        0.63075    0.12541    0.52463    1.000
    N3153    N        0.56753    0.16029    0.81525    1.000
    Si3154   Si       0.53156    0.14866    0.79475    1.000
    Si3155   Si       0.60406    0.15365    0.79622    1.000
    N3156    N        0.49584    0.17039    0.77929    1.000
    Si3157   Si       0.49338    0.16172    0.86922    1.000
    N3158    N        0.50413    0.13046    0.82515    1.000
    N3159    N        0.60180    0.18214    0.76233    1.000
    N3160    N        0.63687    0.16581    0.82503    1.000
    Si3161   Si       0.71895    0.15426    0.77957    1.000
    Si3162   Si       0.62143    0.15692    0.86571    1.000
    N3163    N        0.52255    0.16308    0.97190    1.000
    Si3164   Si       0.56213    0.14740    0.95634    1.000
    N3165    N        0.58977    0.18143    0.94995    1.000
    N3166    N        0.50439    0.12639    0.89014    1.000
    N3167    N        0.59199    0.18468    0.87852    1.000
    N3168    N        0.72706    0.16030    0.89142    1.000
    N3169    N        0.65678    0.15193    0.89177    1.000
    Si3170   Si       0.68915    0.18070    0.89583    1.000
    N3171    N        0.64586    0.15469    0.98372    1.000
    Si3172   Si       0.68490    0.16121    0.96651    1.000
    N3173    N        0.57469    0.12908    0.99405    1.000
    Si3174   Si       0.54669    0.20311    0.03817    1.000
    N3175    N        0.55763    0.20951    0.07837    1.000
    Si3176   Si       0.49974    0.22207    0.09192    1.000
    N3177    N        0.50262    0.22200    0.04678    1.000
    N3178    N        0.65651    0.22195    0.14285    1.000
    N3179    N        0.54491    0.22363    0.99926    1.000
    N3180    N        0.68970    0.18789    0.09605    1.000
    N3181    N        0.62321    0.19932    0.09529    1.000
    N3182    N        0.72597    0.21160    0.03819    1.000
    N3183    N        0.65604    0.22313    0.04053    1.000
    Si3184   Si       0.69178    0.21668    0.06340    1.000
    Si3185   Si       0.62749    0.23735    0.11516    1.000
    Si3186   Si       0.62848    0.19061    0.05334    1.000
    Si3187   Si       0.68811    0.24204    0.16370    1.000
    N3188    N        0.58913    0.23569    0.13278    1.000
    N3189    N        0.59618    0.21246    0.20735    1.000
    Si3190   Si       0.51840    0.21676    0.20296    1.000
    Si3191   Si       0.58230    0.23971    0.17436    1.000
    N3192    N        0.52042    0.23403    0.24324    1.000
    Si3193   Si       0.68792    0.23138    0.23867    1.000
    N3194    N        0.69114    0.18964    0.22741    1.000
    N3195    N        0.71689    0.21091    0.16858    1.000
    Si3196   Si       0.55548    0.23013    0.27182    1.000
    N3197    N        0.49528    0.22963    0.35750    1.000
    N3198    N        0.56510    0.18889    0.26501    1.000
    N3199    N        0.54211    0.24458    0.31123    1.000
    N3200    N        0.72584    0.24080    0.25504    1.000
    N3201    N        0.64831    0.23672    0.25617    1.000
    N3202    N        0.56702    0.21574    0.37434    1.000
    Si3203   Si       0.52423    0.20570    0.37704    1.000
    N3204    N        0.52623    0.22029    0.47017    1.000
    N3205    N        0.58398    0.19524    0.44026    1.000
    Si3206   Si       0.58836    0.22588    0.41157    1.000
    N3207    N        0.49588    0.19989    0.41021    1.000
    N3208    N        0.62899    0.23318    0.39816    1.000
    Si3209   Si       0.65481    0.20018    0.38651    1.000
    Si3210   Si       0.73312    0.22921    0.40777    1.000
    N3211    N        0.69288    0.20969    0.46621    1.000
    N3212    N        0.69588    0.20739    0.40095    1.000
    N3213    N        0.70402    0.18532    0.29845    1.000
    N3214    N        0.57303    0.20395    0.57459    1.000
    Si3215   Si       0.60214    0.20735    0.60682    1.000
    N3216    N        0.52647    0.24068    0.60626    1.000
    Si3217   Si       0.54889    0.23908    0.56617    1.000
    Si3218   Si       0.52881    0.19690    0.62389    1.000
    Si3219   Si       0.64542    0.22756    0.54235    1.000
    N3220    N        0.70003    0.20313    0.60895    1.000
    N3221    N        0.68697    0.21269    0.54078    1.000
    N3222    N        0.63475    0.23025    0.58490    1.000
    N3223    N        0.63283    0.19693    0.51087    1.000
    Si3224   Si       0.67637    0.19402    0.50292    1.000
    Si3225   Si       0.58321    0.22270    0.66471    1.000
    N3226    N        0.60310    0.22634    0.70316    1.000
    Si3227   Si       0.50173    0.22912    0.68030    1.000
    N3228    N        0.49848    0.21021    0.72014    1.000
    N3229    N        0.50148    0.19114    0.65643    1.000
    N3230    N        0.56834    0.18975    0.63979    1.000
    N3231    N        0.54366    0.24380    0.67077    1.000
    Si3232   Si       0.62010    0.19071    0.72261    1.000
    N3233    N        0.69778    0.20212    0.67090    1.000
    Si3234   Si       0.66980    0.21458    0.63899    1.000
    Si3235   Si       0.72662    0.19129    0.64012    1.000
    N3236    N        0.62928    0.19895    0.64339    1.000
    N3237    N        0.66088    0.20082    0.73459    1.000
    N3238    N        0.58593    0.22303    0.82377    1.000
    Si3239   Si       0.58423    0.21807    0.78048    1.000
    Si3240   Si       0.56487    0.19185    0.84614    1.000
    N3241    N        0.52427    0.19243    0.85937    1.000
    N3242    N        0.54551    0.23839    0.77203    1.000
    Si3243   Si       0.50838    0.23772    0.74920    1.000
    N3244    N        0.64965    0.22996    0.80761    1.000
    Si3245   Si       0.66754    0.19631    0.82441    1.000
    Si3246   Si       0.65396    0.23473    0.76180    1.000
    N3247    N        0.67825    0.21204    0.86618    1.000
    N3248    N        0.70392    0.18757    0.80420    1.000
    Si3249   Si       0.52185    0.20686    0.96263    1.000
    N3250    N        0.53912    0.21286    0.92327    1.000
    Si3251   Si       0.58136    0.20767    0.91580    1.000
    Si3252   Si       0.51009    0.21702    0.89249    1.000
    Si3253   Si       0.61559    0.18729    0.98128    1.000
    N3254    N        0.68590    0.19478    0.93752    1.000
    N3255    N        0.63902    0.22496    0.97635    1.000
    Si3256   Si       0.67145    0.23498    0.94689    1.000
    N3257    N        0.60003    0.26129    0.02563    1.000
    N3258    N        0.57122    0.28567    0.08452    1.000
    N3259    N        0.52935    0.28363    0.01086    1.000
    Si3260   Si       0.60878    0.28757    0.06205    1.000
    Si3261   Si       0.50228    0.24847    0.01046    1.000
    N3262    N        0.52197    0.25141    0.11547    1.000
    Si3263   Si       0.56157    0.24618    0.10168    1.000
    Si3264   Si       0.56667    0.26012    0.99967    1.000
    N3265    N        0.70689    0.25624    0.07739    1.000
    Si3266   Si       0.67850    0.28285    0.09683    1.000
    N3267    N        0.66316    0.28625    0.01327    1.000
    N3268    N        0.63729    0.27032    0.08968    1.000
    Si3269   Si       0.63935    0.24972    0.01238    1.000
    Si3270   Si       0.51755    0.27617    0.15292    1.000
    N3271    N        0.61216    0.27003    0.19227    1.000
    N3272    N        0.53932    0.24765    0.17999    1.000
    Si3273   Si       0.61656    0.24523    0.22787    1.000
    Si3274   Si       0.73128    0.29271    0.14943    1.000
    N3275    N        0.69371    0.27567    0.13695    1.000
    Si3276   Si       0.68879    0.30205    0.21195    1.000
    N3277    N        0.68408    0.25867    0.20342    1.000
    N3278    N        0.58826    0.25839    0.25929    1.000
    N3279    N        0.56127    0.28723    0.36191    1.000
    Si3280   Si       0.50343    0.25912    0.32510    1.000
    Si3281   Si       0.56424    0.29807    0.26107    1.000
    Si3282   Si       0.49367    0.26738    0.25394    1.000
    Si3283   Si       0.57020    0.24730    0.34392    1.000
    N3284    N        0.49938    0.30365    0.33263    1.000
    N3285    N        0.60841    0.24338    0.32387    1.000
    Si3286   Si       0.62512    0.25626    0.28757    1.000
    Si3287   Si       0.70870    0.27768    0.35685    1.000
    N3288    N        0.70287    0.27529    0.31521    1.000
    N3289    N        0.63862    0.29745    0.29130    1.000
    N3290    N        0.56704    0.26115    0.42620    1.000
    N3291    N        0.49557    0.26352    0.43965    1.000
    Si3292   Si       0.53467    0.25985    0.45466    1.000
    N3293    N        0.54560    0.29114    0.48423    1.000
    Si3294   Si       0.56859    0.29788    0.40464    1.000
    Si3295   Si       0.69770    0.25314    0.45927    1.000
    N3296    N        0.67874    0.28579    0.38697    1.000
    N3297    N        0.65786    0.26862    0.45050    1.000
    Si3298   Si       0.65905    0.28681    0.49056    1.000
    Si3299   Si       0.64412    0.27277    0.41051    1.000
    N3300    N        0.52188    0.30088    0.25360    1.000
    Si3301   Si       0.73936    0.26023    0.29391    1.000
    N3302    N        0.73645    0.24856    0.37005    1.000
    N3303    N        0.73648    0.26158    0.43800    1.000
    N3304    N        0.57489    0.27021    0.55291    1.000
    N3305    N        0.51586    0.26334    0.54791    1.000
    Si3306   Si       0.54420    0.29038    0.52758    1.000
    Si3307   Si       0.49570    0.26836    0.58605    1.000
    Si3308   Si       0.61437    0.29007    0.55225    1.000
    N3309    N        0.63946    0.26831    0.52452    1.000
    Si3310   Si       0.63054    0.26193    0.61515    1.000
    N3311    N        0.62319    0.29775    0.59480    1.000
    N3312    N        0.72583    0.30219    0.54949    1.000
    N3313    N        0.59211    0.24843    0.62934    1.000
    N3314    N        0.50455    0.27358    0.72259    1.000
    Si3315   Si       0.59959    0.26429    0.72480    1.000
    Si3316   Si       0.55111    0.26598    0.63422    1.000
    N3317    N        0.57072    0.29575    0.71676    1.000
    N3318    N        0.73434    0.26762    0.65623    1.000
    Si3319   Si       0.67298    0.29881    0.72849    1.000
    Si3320   Si       0.73463    0.28814    0.69393    1.000
    Si3321   Si       0.69541    0.28444    0.64747    1.000
    N3322    N        0.69168    0.29681    0.69081    1.000
    N3323    N        0.63111    0.29641    0.71910    1.000
    N3324    N        0.66457    0.25765    0.63970    1.000
    N3325    N        0.70190    0.27806    0.49327    1.000
    N3326    N        0.58092    0.28571    0.82660    1.000
    Si3327   Si       0.54555    0.27159    0.80465    1.000
    N3328    N        0.51164    0.27201    0.83143    1.000
    N3329    N        0.61112    0.24743    0.76213    1.000
    N3330    N        0.53397    0.30390    0.77819    1.000
    Si3331   Si       0.61656    0.25575    0.82719    1.000
    N3332    N        0.64803    0.28192    0.84782    1.000
    Si3333   Si       0.72344    0.27161    0.76993    1.000
    N3334    N        0.71638    0.27101    0.86050    1.000
    N3335    N        0.68195    0.26544    0.75585    1.000
    Si3336   Si       0.67632    0.25610    0.87114    1.000
    Si3337   Si       0.58885    0.28633    0.92437    1.000
    N3338    N        0.57186    0.28454    0.96431    1.000
    N3339    N        0.59776    0.24774    0.91120    1.000
    N3340    N        0.70566    0.25163    0.96928    1.000
    Si3341   Si       0.69799    0.29090    0.98826    1.000
    N3342    N        0.66799    0.26415    0.91378    1.000
    N3343    N        0.49040    0.25536    0.89848    1.000
    Si3344   Si       0.54077    0.31478    0.09388    1.000
    N3345    N        0.50406    0.31518    0.07350    1.000
    Si3346   Si       0.60144    0.35649    0.01804    1.000
    Si3347   Si       0.49708    0.30398    0.03235    1.000
    N3348    N        0.55814    0.35415    0.09529    1.000
    N3349    N        0.56353    0.34679    0.99683    1.000
    N3350    N        0.49816    0.33937    0.00625    1.000
    N3351    N        0.62063    0.32595    0.04276    1.000
    Si3352   Si       0.72120    0.35192    0.02350    1.000
    N3353    N        0.68262    0.32196    0.07862    1.000
    Si3354   Si       0.66314    0.32478    0.03808    1.000
    Si3355   Si       0.71495    0.34451    0.09611    1.000
    N3356    N        0.67869    0.35837    0.01787    1.000
    N3357    N        0.72648    0.30776    0.01634    1.000
    N3358    N        0.53220    0.31444    0.13666    1.000
    Si3359   Si       0.56119    0.35099    0.13971    1.000
    N3360    N        0.58747    0.31949    0.23335    1.000
    Si3361   Si       0.50093    0.33835    0.15599    1.000
    Si3362   Si       0.51662    0.34155    0.23407    1.000
    N3363    N        0.59617    0.33250    0.16193    1.000
    N3364    N        0.49735    0.32439    0.19916    1.000
    Si3365   Si       0.61277    0.31259    0.19696    1.000
    N3366    N        0.65356    0.32479    0.20449    1.000
    N3367    N        0.72234    0.31491    0.18921    1.000
    N3368    N        0.73330    0.36414    0.06167    1.000
    Si3369   Si       0.54245    0.31534    0.33614    1.000
    N3370    N        0.54794    0.35641    0.35000    1.000
    N3371    N        0.56896    0.31692    0.30024    1.000
    Si3372   Si       0.61148    0.32844    0.30288    1.000
    Si3373   Si       0.69393    0.35049    0.46627    1.000
    N3374    N        0.61816    0.34256    0.34267    1.000
    Si3375   Si       0.68099    0.30433    0.29207    1.000
    N3376    N        0.68722    0.34743    0.30066    1.000
    Si3377   Si       0.70597    0.35260    0.26162    1.000
    N3378    N        0.73092    0.31454    0.36144    1.000
    N3379    N        0.69991    0.30910    0.25278    1.000
    N3380    N        0.54946    0.32924    0.42535    1.000
    Si3381   Si       0.54540    0.33191    0.47005    1.000
    N3382    N        0.50661    0.35356    0.46552    1.000
    N3383    N        0.61414    0.30493    0.40305    1.000
    N3384    N        0.71757    0.33646    0.43229    1.000
    Si3385   Si       0.62793    0.34047    0.38503    1.000
    Si3386   Si       0.70183    0.32369    0.39564    1.000
    N3387    N        0.67075    0.35126    0.38784    1.000
    N3388    N        0.66286    0.32876    0.48965    1.000
    N3389    N        0.53932    0.33207    0.53304    1.000
    N3390    N        0.49546    0.31011    0.60294    1.000
    Si3391   Si       0.57555    0.35615    0.52604    1.000
    Si3392   Si       0.52879    0.33583    0.61448    1.000
    N3393    N        0.60959    0.32727    0.53197    1.000
    Si3394   Si       0.59706    0.32370    0.62176    1.000
    N3395    N        0.55869    0.30671    0.62223    1.000
    Si3396   Si       0.70658    0.33098    0.57575    1.000
    Si3397   Si       0.64745    0.34840    0.52483    1.000
    N3398    N        0.66733    0.34872    0.56400    1.000
    N3399    N        0.70147    0.31123    0.61533    1.000
    Si3400   Si       0.72820    0.30986    0.50727    1.000
    N3401    N        0.72311    0.35225    0.49936    1.000
    Si3402   Si       0.59989    0.32571    0.70650    1.000
    N3403    N        0.52241    0.34405    0.72277    1.000
    Si3404   Si       0.50099    0.35387    0.68403    1.000
    N3405    N        0.60844    0.33252    0.66356    1.000
    Si3406   Si       0.53268    0.30425    0.73429    1.000
    Si3407   Si       0.52333    0.34062    0.79877    1.000
    N3408    N        0.55360    0.34831    0.83015    1.000
    Si3409   Si       0.57545    0.31914    0.85373    1.000
    N3410    N        0.73766    0.35283    0.92065    1.000
    N3411    N        0.61227    0.34133    0.85904    1.000
    N3412    N        0.67120    0.35248    0.82436    1.000
    Si3413   Si       0.69616    0.34077    0.78939    1.000
    Si3414   Si       0.65326    0.32447    0.85372    1.000
    N3415    N        0.67822    0.33691    0.75044    1.000
    Si3416   Si       0.73585    0.30469    0.84114    1.000
    N3417    N        0.72127    0.30588    0.79842    1.000
    Si3418   Si       0.66524    0.30732    0.92481    1.000
    Si3419   Si       0.49230    0.35662    0.96449    1.000
    Si3420   Si       0.54052    0.34046    0.91358    1.000
    N3421    N        0.51696    0.32538    0.94637    1.000
    Si3422   Si       0.54075    0.31296    0.98126    1.000
    N3423    N        0.56176    0.30780    0.89430    1.000
    Si3424   Si       0.61215    0.35858    0.94168    1.000
    Si3425   Si       0.71164    0.35785    0.88630    1.000
    N3426    N        0.67767    0.32873    0.88781    1.000
    N3427    N        0.62179    0.31683    0.93204    1.000
    Si3428   Si       0.71258    0.36012    0.95500    1.000
    N3429    N        0.68878    0.32004    0.95783    1.000
    N3430    N        0.57170    0.36625    0.93323    1.000
    N3431    N        0.62338    0.36610    0.98209    1.000
    Si3432   Si       0.55983    0.38999    0.06983    1.000
    N3433    N        0.52305    0.39040    0.04652    1.000
    N3434    N        0.59426    0.39329    0.04304    1.000
    Si3435   Si       0.72862    0.40368    0.08008    1.000
    N3436    N        0.71040    0.38497    0.11531    1.000
    Si3437   Si       0.68481    0.40285    0.14434    1.000
    N3438    N        0.52779    0.37177    0.16385    1.000
    N3439    N        0.58571    0.39092    0.14204    1.000
    Si3440   Si       0.50844    0.40997    0.17439    1.000
    N3441    N        0.54911    0.37261    0.23842    1.000
    Si3442   Si       0.59028    0.36237    0.24248    1.000
    Si3443   Si       0.53968    0.41623    0.24033    1.000
    N3444    N        0.61636    0.38116    0.21251    1.000
    Si3445   Si       0.61347    0.37479    0.16830    1.000
    N3446    N        0.70893    0.41289    0.18026    1.000
    Si3447   Si       0.65888    0.37017    0.20595    1.000
    N3448    N        0.68493    0.38087    0.23760    1.000
    Si3449   Si       0.72814    0.40043    0.21777    1.000
    N3450    N        0.65566    0.37565    0.16310    1.000
    N3451    N        0.64827    0.42564    0.00957    1.000
    Si3452   Si       0.51188    0.37768    0.35492    1.000
    N3453    N        0.59443    0.40970    0.32976    1.000
    Si3454   Si       0.58685    0.37189    0.35133    1.000
    N3455    N        0.52483    0.41982    0.28308    1.000
    N3456    N        0.61300    0.36514    0.28007    1.000
    N3457    N        0.52672    0.42012    0.35566    1.000
    Si3458   Si       0.68377    0.41869    0.26209    1.000
    Si3459   Si       0.69264    0.38394    0.32205    1.000
    N3460    N        0.71251    0.38858    0.36087    1.000
    Si3461   Si       0.62164    0.40450    0.29692    1.000
    N3462    N        0.71524    0.40612    0.29255    1.000
    N3463    N        0.65974    0.41085    0.32050    1.000
    Si3464   Si       0.52087    0.36201    0.42342    1.000
    N3465    N        0.54415    0.40065    0.42743    1.000
    Si3466   Si       0.57581    0.39804    0.46014    1.000
    N3467    N        0.60366    0.37726    0.39131    1.000
    Si3468   Si       0.48799    0.38624    0.48789    1.000
    N3469    N        0.49334    0.36222    0.39104    1.000
    Si3470   Si       0.61884    0.41466    0.40586    1.000
    N3471    N        0.57335    0.36206    0.48319    1.000
    N3472    N        0.61376    0.41258    0.45023    1.000
    Si3473   Si       0.69118    0.39451    0.40097    1.000
    N3474    N        0.68018    0.38766    0.44861    1.000
    Si3475   Si       0.65062    0.40677    0.47277    1.000
    N3476    N        0.58404    0.39307    0.54914    1.000
    N3477    N        0.51469    0.39547    0.52224    1.000
    Si3478   Si       0.57738    0.39198    0.59315    1.000
    N3479    N        0.60935    0.36572    0.60919    1.000
    Si3480   Si       0.51748    0.36551    0.55333    1.000
    N3481    N        0.54237    0.36519    0.58886    1.000
    N3482    N        0.63913    0.38823    0.51192    1.000
    Si3483   Si       0.64901    0.37591    0.59335    1.000
    N3484    N        0.64753    0.41509    0.57359    1.000
    Si3485   Si       0.62075    0.41488    0.53926    1.000
    N3486    N        0.73342    0.36511    0.58382    1.000
    Si3487   Si       0.54670    0.37577    0.73881    1.000
    N3488    N        0.59778    0.40595    0.66791    1.000
    Si3489   Si       0.60712    0.39596    0.71113    1.000
    N3490    N        0.58693    0.36246    0.72593    1.000
    N3491    N        0.55397    0.42204    0.73094    1.000
    Si3492   Si       0.67798    0.37137    0.72516    1.000
    Si3493   Si       0.62645    0.37273    0.65582    1.000
    N3494    N        0.71107    0.36469    0.69850    1.000
    Si3495   Si       0.70121    0.38631    0.66072    1.000
    N3496    N        0.66627    0.37830    0.63587    1.000
    N3497    N        0.64500    0.37724    0.69736    1.000
    N3498    N        0.68378    0.41023    0.74305    1.000
    N3499    N        0.52835    0.35689    0.65226    1.000
    Si3500   Si       0.55172    0.39049    0.81737    1.000
    N3501    N        0.53288    0.37806    0.77843    1.000
    N3502    N        0.51315    0.40930    0.83914    1.000
    N3503    N        0.57643    0.40198    0.86142    1.000
    N3504    N        0.63461    0.40793    0.84369    1.000
    N3505    N        0.72176    0.37366    0.78582    1.000
    Si3506   Si       0.67488    0.39554    0.83639    1.000
    Si3507   Si       0.71030    0.41353    0.77746    1.000
    Si3508   Si       0.61274    0.38211    0.87091    1.000
    Si3509   Si       0.53572    0.40345    0.87589    1.000
    N3510    N        0.51747    0.39264    0.96143    1.000
    Si3511   Si       0.55800    0.38266    0.97200    1.000
    N3512    N        0.51802    0.36604    0.88956    1.000
    Si3513   Si       0.65984    0.38820    0.99074    1.000
    N3514    N        0.62982    0.38551    0.91158    1.000
    N3515    N        0.68096    0.39136    0.95213    1.000
    N3516    N        0.69340    0.39591    0.87881    1.000
    Si3517   Si       0.66742    0.40822    0.91510    1.000
    N3518    N        0.73854    0.36854    0.98824    1.000
    N3519    N        0.57874    0.42052    0.80167    1.000
    Si3520   Si       0.50327    0.42882    0.03859    1.000
    N3521    N        0.59439    0.47098    0.01793    1.000
    N3522    N        0.52295    0.46566    0.03079    1.000
    Si3523   Si       0.51764    0.45131    0.10112    1.000
    N3524    N        0.55388    0.42620    0.09278    1.000
    Si3525   Si       0.60446    0.42659    0.01521    1.000
    Si3526   Si       0.67473    0.44941    0.03300    1.000
    N3527    N        0.65055    0.47034    0.06280    1.000
    Si3528   Si       0.67724    0.45623    0.09324    1.000
    N3529    N        0.69560    0.42697    0.06406    1.000
    Si3530   Si       0.61646    0.42520    0.22514    1.000
    N3531    N        0.57574    0.43958    0.22920    1.000
    N3532    N        0.59429    0.45896    0.14160    1.000
    N3533    N        0.52278    0.43722    0.14458    1.000
    Si3534   Si       0.56491    0.42716    0.13446    1.000
    N3535    N        0.50430    0.42268    0.21537    1.000
    N3536    N        0.64579    0.44432    0.19566    1.000
    N3537    N        0.71064    0.44174    0.23598    1.000
    Si3538   Si       0.63590    0.45912    0.15372    1.000
    Si3539   Si       0.68982    0.44928    0.19643    1.000
    N3540    N        0.66445    0.43824    0.12917    1.000
    Si3541   Si       0.59530    0.45074    0.34269    1.000
    Si3542   Si       0.52677    0.44533    0.31886    1.000
    N3543    N        0.56481    0.47056    0.32301    1.000
    N3544    N        0.49547    0.47660    0.31324    1.000
    Si3545   Si       0.73774    0.47094    0.25329    1.000
    Si3546   Si       0.66468    0.44335    0.35133    1.000
    N3547    N        0.63278    0.47068    0.33807    1.000
    N3548    N        0.70106    0.46788    0.35727    1.000
    N3549    N        0.63957    0.42485    0.26126    1.000
    N3550    N        0.59047    0.44308    0.38731    1.000
    N3551    N        0.53444    0.46105    0.41319    1.000
    Si3552   Si       0.52464    0.43537    0.44785    1.000
    N3553    N        0.55262    0.43284    0.48094    1.000
    Si3554   Si       0.58271    0.46603    0.48801    1.000
    Si3555   Si       0.54940    0.42631    0.39054    1.000
    Si3556   Si       0.71627    0.46477    0.39881    1.000
    N3557    N        0.65848    0.42262    0.38869    1.000
    N3558    N        0.72633    0.42448    0.41136    1.000
    N3559    N        0.67178    0.44250    0.48372    1.000
    Si3560   Si       0.70707    0.46368    0.46927    1.000
    Si3561   Si       0.57713    0.47850    0.41159    1.000
    N3562    N        0.54513    0.45855    0.55114    1.000
    Si3563   Si       0.54470    0.45966    0.59345    1.000
    N3564    N        0.50297    0.45673    0.60961    1.000
    Si3565   Si       0.52625    0.43611    0.51912    1.000
    N3566    N        0.57100    0.43028    0.61080    1.000
    N3567    N        0.49509    0.46575    0.50829    1.000
    N3568    N        0.61330    0.45184    0.51770    1.000
    Si3569   Si       0.65310    0.46873    0.51149    1.000
    Si3570   Si       0.67731    0.44604    0.58345    1.000
    N3571    N        0.71742    0.43643    0.57298    1.000
    Si3572   Si       0.72189    0.47411    0.54373    1.000
    N3573    N        0.67183    0.46843    0.61963    1.000
    N3574    N        0.67242    0.47413    0.54960    1.000
    N3575    N        0.53938    0.45130    0.66784    1.000
    Si3576   Si       0.53443    0.45486    0.71088    1.000
    Si3577   Si       0.57984    0.44167    0.65053    1.000
    Si3578   Si       0.50313    0.46914    0.65117    1.000
    N3579    N        0.60731    0.47551    0.64726    1.000
    N3580    N        0.61631    0.42926    0.73867    1.000
    Si3581   Si       0.65726    0.44144    0.73150    1.000
    Si3582   Si       0.68955    0.46518    0.66025    1.000
    N3583    N        0.66436    0.46287    0.69487    1.000
    N3584    N        0.71046    0.42867    0.66031    1.000
    Si3585   Si       0.58100    0.43717    0.76226    1.000
    Si3586   Si       0.60139    0.43584    0.83542    1.000
    N3587    N        0.57292    0.47850    0.77122    1.000
    Si3588   Si       0.67918    0.48278    0.93553    1.000
    N3589    N        0.60132    0.46581    0.87060    1.000
    N3590    N        0.67453    0.47177    0.75581    1.000
    N3591    N        0.62950    0.46967    0.81245    1.000
    Si3592   Si       0.67265    0.46927    0.79918    1.000
    N3593    N        0.68970    0.42941    0.81233    1.000
    N3594    N        0.58516    0.46549    0.93605    1.000
    N3595    N        0.52366    0.46330    0.95955    1.000
    N3596    N        0.53283    0.43520    0.90440    1.000
    Si3597   Si       0.50675    0.42796    0.93997    1.000
    Si3598   Si       0.57151    0.46806    0.97789    1.000
    Si3599   Si       0.54503    0.47256    0.92016    1.000
    N3600    N        0.57686    0.42043    0.98339    1.000
    N3601    N        0.65416    0.44970    0.91754    1.000
    N3602    N        0.72182    0.47583    0.94608    1.000
    Si3603   Si       0.61794    0.47460    0.91148    1.000
    N3604    N        0.52833    0.49236    0.09308    1.000
    N3605    N        0.58936    0.49604    0.07880    1.000
    Si3606   Si       0.55058    0.49398    0.05620    1.000
    N3607    N        0.55068    0.53619    0.04085    1.000
    N3608    N        0.50201    0.52442    0.99815    1.000
    Si3609   Si       0.59716    0.49808    0.12177    1.000
    N3610    N        0.70352    0.48263    0.02790    1.000
    Si3611   Si       0.61808    0.49349    0.04521    1.000
    Si3612   Si       0.71699    0.50528    0.06343    1.000
    N3613    N        0.63984    0.52767    0.03067    1.000
    N3614    N        0.70583    0.48739    0.10254    1.000
    Si3615   Si       0.53419    0.52792    0.12261    1.000
    N3616    N        0.50002    0.53748    0.21421    1.000
    Si3617   Si       0.56541    0.48315    0.22394    1.000
    Si3618   Si       0.49960    0.50415    0.18532    1.000
    N3619    N        0.57259    0.52549    0.14269    1.000
    N3620    N        0.59480    0.51578    0.21399    1.000
    N3621    N        0.50039    0.52272    0.14723    1.000
    N3622    N        0.53648    0.48511    0.19473    1.000
    N3623    N        0.69693    0.48726    0.18046    1.000
    Si3624   Si       0.69166    0.51851    0.21235    1.000
    N3625    N        0.65978    0.53101    0.23862    1.000
    N3626    N        0.63860    0.50202    0.14250    1.000
    Si3627   Si       0.71336    0.50463    0.14246    1.000
    N3628    N        0.71779    0.50674    0.24611    1.000
    Si3629   Si       0.56897    0.50793    0.29930    1.000
    N3630    N        0.54817    0.50379    0.26023    1.000
    Si3631   Si       0.50772    0.51687    0.25210    1.000
    N3632    N        0.60843    0.51632    0.28545    1.000
    Si3633   Si       0.54628    0.52933    0.36493    1.000
    N3634    N        0.55044    0.53881    0.32328    1.000
    N3635    N        0.68163    0.50978    0.30294    1.000
    Si3636   Si       0.63964    0.50945    0.31614    1.000
    Si3637   Si       0.71346    0.49204    0.32398    1.000
    Si3638   Si       0.61742    0.53445    0.24689    1.000
    Si3639   Si       0.68443    0.52415    0.42344    1.000
    N3640    N        0.59520    0.48417    0.45103    1.000
    N3641    N        0.50804    0.51343    0.37730    1.000
    N3642    N        0.58075    0.51300    0.38648    1.000
    N3643    N        0.50072    0.53328    0.47856    1.000
    Si3644   Si       0.49779    0.48137    0.40479    1.000
    Si3645   Si       0.62328    0.51453    0.45545    1.000
    N3646    N        0.64200    0.52359    0.41668    1.000
    N3647    N        0.64770    0.50607    0.49109    1.000
    N3648    N        0.69865    0.48589    0.43276    1.000
    N3649    N        0.63346    0.53877    0.34831    1.000
    N3650    N        0.55957    0.50061    0.59661    1.000
    N3651    N        0.51940    0.52139    0.54555    1.000
    Si3652   Si       0.56028    0.50262    0.55115    1.000
    Si3653   Si       0.51383    0.50366    0.50730    1.000
    N3654    N        0.59231    0.53283    0.54434    1.000
    N3655    N        0.55834    0.49937    0.50416    1.000
    N3656    N        0.71629    0.49148    0.68054    1.000
    N3657    N        0.64553    0.52158    0.58837    1.000
    N3658    N        0.72087    0.50820    0.57054    1.000
    Si3659   Si       0.67858    0.51509    0.56205    1.000
    N3660    N        0.71314    0.49149    0.50347    1.000
    Si3661   Si       0.64100    0.49664    0.62542    1.000
    Si3662   Si       0.68595    0.52568    0.49696    1.000
    Si3663   Si       0.53422    0.52925    0.68489    1.000
    N3664    N        0.54044    0.49771    0.71516    1.000
    N3665    N        0.49996    0.51261    0.66377    1.000
    Si3666   Si       0.60455    0.51267    0.67110    1.000
    N3667    N        0.60928    0.51520    0.71354    1.000
    N3668    N        0.56765    0.53238    0.65856    1.000
    N3669    N        0.64314    0.52588    0.65717    1.000
    Si3670   Si       0.69191    0.49662    0.71812    1.000
    N3671    N        0.72318    0.51643    0.74266    1.000
    N3672    N        0.59288    0.52057    0.82177    1.000
    Si3673   Si       0.54535    0.50719    0.75722    1.000
    N3674    N        0.50669    0.50802    0.77802    1.000
    Si3675   Si       0.60790    0.49900    0.78591    1.000
    Si3676   Si       0.50172    0.53112    0.81329    1.000
    Si3677   Si       0.61908    0.49622    0.84673    1.000
    N3678    N        0.68721    0.50704    0.81442    1.000
    Si3679   Si       0.69506    0.51388    0.85715    1.000
    N3680    N        0.63636    0.52902    0.77423    1.000
    N3681    N        0.73228    0.49502    0.86816    1.000
    N3682    N        0.65328    0.51002    0.86726    1.000
    N3683    N        0.57052    0.51422    0.97636    1.000
    N3684    N        0.52534    0.50663    0.90173    1.000
    Si3685   Si       0.50071    0.48219    0.99379    1.000
    N3686    N        0.62451    0.51690    0.92483    1.000
    N3687    N        0.66629    0.49207    0.97578    1.000
    Si3688   Si       0.65572    0.53109    0.98877    1.000
    Si3689   Si       0.71061    0.49827    0.98623    1.000
    Si3690   Si       0.73643    0.50737    0.90945    1.000
    Si3691   Si       0.65467    0.53683    0.90248    1.000
    N3692    N        0.69183    0.52104    0.91529    1.000
    Si3693   Si       0.59749    0.53858    0.95054    1.000
    Si3694   Si       0.55257    0.57110    0.06371    1.000
    N3695    N        0.53581    0.56365    0.10291    1.000
    Si3696   Si       0.54150    0.53890    0.99761    1.000
    Si3697   Si       0.74165    0.56705    0.23012    1.000
    Si3698   Si       0.65835    0.55246    0.06341    1.000
    Si3699   Si       0.71923    0.58258    0.05493    1.000
    N3700    N        0.63459    0.55501    0.09876    1.000
    N3701    N        0.70132    0.54577    0.06331    1.000
    Si3702   Si       0.58955    0.54400    0.18004    1.000
    N3703    N        0.56045    0.57324    0.19577    1.000
    Si3704   Si       0.51799    0.57451    0.20106    1.000
    N3705    N        0.60437    0.57741    0.24730    1.000
    N3706    N        0.70902    0.55677    0.20316    1.000
    N3707    N        0.62666    0.56384    0.16729    1.000
    Si3708   Si       0.70484    0.57520    0.16358    1.000
    N3709    N        0.69140    0.54326    0.13803    1.000
    Si3710   Si       0.64866    0.54310    0.13754    1.000
    N3711    N        0.65676    0.59733    0.06107    1.000
    Si3712   Si       0.51862    0.56664    0.31558    1.000
    N3713    N        0.49796    0.54627    0.28155    1.000
    N3714    N        0.66195    0.57105    0.29231    1.000
    Si3715   Si       0.64464    0.57755    0.33152    1.000
    N3716    N        0.72863    0.56376    0.27076    1.000
    Si3717   Si       0.68803    0.54128    0.27255    1.000
    N3718    N        0.70717    0.54373    0.39186    1.000
    N3719    N        0.49498    0.59611    0.46559    1.000
    N3720    N        0.53996    0.56806    0.38425    1.000
    N3721    N        0.60138    0.54959    0.46649    1.000
    Si3722   Si       0.49619    0.56621    0.38823    1.000
    Si3723   Si       0.58126    0.58927    0.46509    1.000
    N3724    N        0.60883    0.58011    0.39781    1.000
    Si3725   Si       0.61450    0.53852    0.38799    1.000
    Si3726   Si       0.57008    0.59718    0.39376    1.000
    N3727    N        0.67464    0.59883    0.42325    1.000
    Si3728   Si       0.69526    0.59260    0.46037    1.000
    Si3729   Si       0.69759    0.58455    0.38872    1.000
    N3730    N        0.69143    0.54774    0.45966    1.000
    N3731    N        0.53526    0.56749    0.59846    1.000
    N3732    N        0.59982    0.56509    0.60633    1.000
    Si3733   Si       0.50346    0.55442    0.57051    1.000
    N3734    N        0.49842    0.58040    0.53657    1.000
    N3735    N        0.55456    0.57509    0.49777    1.000
    Si3736   Si       0.58040    0.53859    0.50380    1.000
    N3737    N        0.63164    0.59257    0.66586    1.000
    Si3738   Si       0.61949    0.55160    0.57107    1.000
    N3739    N        0.63346    0.58848    0.55139    1.000
    N3740    N        0.68082    0.54700    0.53204    1.000
    Si3741   Si       0.67311    0.59002    0.53237    1.000
    Si3742   Si       0.49449    0.59267    0.71180    1.000
    N3743    N        0.53028    0.56739    0.70828    1.000
    N3744    N        0.60712    0.58048    0.72742    1.000
    Si3745   Si       0.56337    0.57800    0.73576    1.000
    N3746    N        0.70105    0.56999    0.66230    1.000
    Si3747   Si       0.73595    0.56113    0.63967    1.000
    Si3748   Si       0.63107    0.54473    0.73510    1.000
    Si3749   Si       0.66050    0.56091    0.67406    1.000
    Si3750   Si       0.70701    0.55707    0.74016    1.000
    N3751    N        0.67042    0.54433    0.71526    1.000
    N3752    N        0.73115    0.58715    0.72382    1.000
    Si3753   Si       0.56397    0.54026    0.61614    1.000
    Si3754   Si       0.51154    0.57120    0.49575    1.000
    Si3755   Si       0.57034    0.55298    0.80986    1.000
    N3756    N        0.53283    0.55551    0.83123    1.000
    N3757    N        0.56075    0.54623    0.76678    1.000
    N3758    N        0.58168    0.59420    0.80912    1.000
    N3759    N        0.64857    0.57057    0.82580    1.000
    N3760    N        0.69130    0.57273    0.77736    1.000
    Si3761   Si       0.67484    0.58608    0.85489    1.000
    N3762    N        0.70566    0.55666    0.85292    1.000
    Si3763   Si       0.66871    0.54297    0.79833    1.000
    N3764    N        0.56903    0.56823    0.93697    1.000
    N3765    N        0.53256    0.58161    0.99178    1.000
    N3766    N        0.69813    0.54261    0.98455    1.000
    N3767    N        0.65496    0.57901    0.89326    1.000
    N3768    N        0.62841    0.56162    0.97103    1.000
    Si3769   Si       0.70783    0.58491    0.97977    1.000
    N3770    N        0.50416    0.59720    0.92761    1.000
    Si3771   Si       0.53990    0.59644    0.95320    1.000
    Si3772   Si       0.56190    0.63338    0.05755    1.000
    Si3773   Si       0.50473    0.60140    0.01733    1.000
    N3774    N        0.52494    0.60572    0.05747    1.000
    N3775    N        0.50096    0.64461    0.00670    1.000
    N3776    N        0.58631    0.59911    0.06578    1.000
    N3777    N        0.57006    0.65102    0.01888    1.000
    Si3778   Si       0.66822    0.62377    0.02833    1.000
    Si3779   Si       0.71596    0.64713    0.10325    1.000
    N3780    N        0.73309    0.61177    0.08412    1.000
    N3781    N        0.63443    0.62906    0.00088    1.000
    N3782    N        0.70441    0.60341    0.01846    1.000
    N3783    N        0.62247    0.62128    0.12194    1.000
    Si3784   Si       0.62228    0.59608    0.08897    1.000
    N3785    N        0.50850    0.63160    0.12299    1.000
    Si3786   Si       0.51385    0.63955    0.23184    1.000
    N3787    N        0.51822    0.64653    0.18895    1.000
    Si3788   Si       0.58366    0.60420    0.21829    1.000
    N3789    N        0.60882    0.62754    0.19392    1.000
    N3790    N        0.55976    0.63298    0.23954    1.000
    Si3791   Si       0.49057    0.62830    0.16233    1.000
    N3792    N        0.50544    0.59876    0.23641    1.000
    N3793    N        0.69755    0.64753    0.21233    1.000
    Si3794   Si       0.73686    0.64317    0.23293    1.000
    Si3795   Si       0.63196    0.60714    0.16296    1.000
    N3796    N        0.67509    0.60650    0.16518    1.000
    Si3797   Si       0.69060    0.64675    0.17050    1.000
    N3798    N        0.72481    0.64401    0.14483    1.000
    Si3799   Si       0.50815    0.59805    0.09748    1.000
    Si3800   Si       0.57755    0.62287    0.32712    1.000
    Si3801   Si       0.50293    0.63244    0.30705    1.000
    N3802    N        0.53650    0.60648    0.31804    1.000
    N3803    N        0.49354    0.65282    0.34493    1.000
    N3804    N        0.60997    0.59799    0.31379    1.000
    N3805    N        0.57847    0.63274    0.36947    1.000
    N3806    N        0.65180    0.63396    0.26507    1.000
    Si3807   Si       0.67933    0.63968    0.35019    1.000
    N3808    N        0.70161    0.63723    0.31488    1.000
    N3809    N        0.66490    0.59951    0.36288    1.000
    Si3810   Si       0.63187    0.59653    0.27490    1.000
    Si3811   Si       0.51645    0.62038    0.43552    1.000
    N3812    N        0.55788    0.60685    0.43357    1.000
    N3813    N        0.59857    0.62008    0.49180    1.000
    N3814    N        0.73280    0.60917    0.38572    1.000
    Si3815   Si       0.73526    0.63289    0.42321    1.000
    Si3816   Si       0.63983    0.60891    0.40111    1.000
    N3817    N        0.66774    0.60554    0.49198    1.000
    N3818    N        0.63664    0.65355    0.39748    1.000
    N3819    N        0.57432    0.61800    0.55988    1.000
    N3820    N        0.50692    0.62615    0.58324    1.000
    N3821    N        0.52709    0.63612    0.51356    1.000
    Si3822   Si       0.56361    0.61539    0.51806    1.000
    Si3823   Si       0.54562    0.60866    0.59394    1.000
    Si3824   Si       0.49572    0.62405    0.54095    1.000
    Si3825   Si       0.61679    0.62522    0.56546    1.000
    Si3826   Si       0.72751    0.60974    0.58683    1.000
    N3827    N        0.63624    0.62656    0.60512    1.000
    N3828    N        0.70661    0.60966    0.55018    1.000
    Si3829   Si       0.63805    0.63832    0.49586    1.000
    Si3830   Si       0.66901    0.65135    0.61792    1.000
    N3831    N        0.70543    0.63021    0.62075    1.000
    N3832    N        0.63642    0.65396    0.53893    1.000
    N3833    N        0.57275    0.62271    0.62516    1.000
    Si3834   Si       0.54384    0.64515    0.71834    1.000
    N3835    N        0.57611    0.63402    0.68943    1.000
    N3836    N        0.50703    0.63197    0.69855    1.000
    Si3837   Si       0.56306    0.65487    0.65278    1.000
    Si3838   Si       0.48894    0.65725    0.66803    1.000
    Si3839   Si       0.61017    0.60088    0.62819    1.000
    N3840    N        0.71366    0.64572    0.68471    1.000
    Si3841   Si       0.61497    0.61424    0.70102    1.000
    N3842    N        0.64800    0.63777    0.71497    1.000
    Si3843   Si       0.72219    0.60124    0.68412    1.000
    N3844    N        0.51935    0.62394    0.80573    1.000
    Si3845   Si       0.55970    0.62862    0.79296    1.000
    Si3846   Si       0.57765    0.64421    0.85807    1.000
    N3847    N        0.55388    0.61893    0.75203    1.000
    Si3848   Si       0.49175    0.63065    0.77582    1.000
    N3849    N        0.54461    0.61778    0.86994    1.000
    Si3850   Si       0.51976    0.59723    0.83843    1.000
    N3851    N        0.61788    0.62414    0.85763    1.000
    N3852    N        0.64027    0.62274    0.78442    1.000
    N3853    N        0.68560    0.62189    0.83553    1.000
    Si3854   Si       0.68277    0.61330    0.79292    1.000
    N3855    N        0.69388    0.65051    0.76930    1.000
    Si3856   Si       0.62177    0.60420    0.81943    1.000
    Si3857   Si       0.65162    0.65257    0.75589    1.000
    Si3858   Si       0.69155    0.64536    0.93589    1.000
    N3859    N        0.55180    0.64032    0.95357    1.000
    Si3860   Si       0.50849    0.62332    0.89344    1.000
    N3861    N        0.67113    0.64736    0.89512    1.000
    N3862    N        0.61915    0.62671    0.93455    1.000
    N3863    N        0.68077    0.60685    0.95653    1.000
    Si3864   Si       0.63782    0.61828    0.89517    1.000
    Si3865   Si       0.63698    0.60359    0.96592    1.000
    N3866    N        0.73410    0.65159    0.92102    1.000
    Si3867   Si       0.58694    0.65611    0.93108    1.000
    Si3868   Si       0.52181    0.67141    0.10727    1.000
    N3869    N        0.55813    0.66533    0.08522    1.000
    Si3870   Si       0.59083    0.69556    0.07938    1.000
    Si3871   Si       0.61208    0.66224    0.01791    1.000
    N3872    N        0.61960    0.66828    0.06010    1.000
    Si3873   Si       0.66012    0.68470    0.06328    1.000
    N3874    N        0.62077    0.70262    0.11222    1.000
    N3875    N        0.68245    0.66471    0.03176    1.000
    N3876    N        0.62506    0.70360    0.00648    1.000
    N3877    N        0.67379    0.66021    0.09916    1.000
    Si3878   Si       0.66361    0.66174    0.23615    1.000
    Si3879   Si       0.69943    0.68358    0.99880    1.000
    N3880    N        0.51618    0.70751    0.21756    1.000
    Si3881   Si       0.53400    0.68596    0.18400    1.000
    N3882    N        0.57753    0.69103    0.17864    1.000
    N3883    N        0.51855    0.69668    0.14474    1.000
    Si3884   Si       0.61473    0.67082    0.18973    1.000
    N3885    N        0.64869    0.66754    0.16322    1.000
    N3886    N        0.63001    0.68755    0.22596    1.000
    Si3887   Si       0.63776    0.66230    0.12262    1.000
    N3888    N        0.60107    0.70226    0.36348    1.000
    Si3889   Si       0.55882    0.66657    0.26942    1.000
    N3890    N        0.57215    0.70372    0.25181    1.000
    N3891    N        0.58133    0.66070    0.30531    1.000
    Si3892   Si       0.61089    0.68757    0.32285    1.000
    Si3893   Si       0.49413    0.68985    0.36696    1.000
    N3894    N        0.51619    0.65802    0.27552    1.000
    Si3895   Si       0.49120    0.69741    0.25327    1.000
    Si3896   Si       0.67257    0.66029    0.29261    1.000
    N3897    N        0.68829    0.68800    0.26408    1.000
    N3898    N        0.64866    0.66775    0.33161    1.000
    Si3899   Si       0.65760    0.69563    0.36958    1.000
    Si3900   Si       0.59565    0.66826    0.39102    1.000
    Si3901   Si       0.59872    0.69647    0.46352    1.000
    Si3902   Si       0.53802    0.69726    0.42726    1.000
    N3903    N        0.58168    0.68843    0.42479    1.000
    N3904    N        0.53327    0.69773    0.38488    1.000
    Si3905   Si       0.52655    0.66978    0.48932    1.000
    N3906    N        0.51961    0.66201    0.44629    1.000
    N3907    N        0.56231    0.69279    0.49112    1.000
    N3908    N        0.70197    0.65692    0.43980    1.000
    Si3909   Si       0.72620    0.68552    0.46011    1.000
    N3910    N        0.63661    0.67140    0.46722    1.000
    Si3911   Si       0.66015    0.66985    0.43120    1.000
    N3912    N        0.69580    0.67242    0.37048    1.000
    N3913    N        0.66341    0.70894    0.41318    1.000
    Si3914   Si       0.50694    0.69323    0.60657    1.000
    N3915    N        0.54199    0.69809    0.58049    1.000
    N3916    N        0.61432    0.69645    0.59343    1.000
    N3917    N        0.68015    0.68245    0.58893    1.000
    Si3918   Si       0.64513    0.68918    0.56158    1.000
    Si3919   Si       0.71576    0.70404    0.59370    1.000
    N3920    N        0.71034    0.69611    0.49818    1.000
    N3921    N        0.52244    0.66707    0.63951    1.000
    N3922    N        0.58351    0.69139    0.65665    1.000
    N3923    N        0.55305    0.68816    0.72731    1.000
    Si3924   Si       0.57318    0.71144    0.69591    1.000
    N3925    N        0.67600    0.70205    0.71669    1.000
    N3926    N        0.65619    0.67591    0.65139    1.000
    Si3927   Si       0.67404    0.66497    0.69151    1.000
    Si3928   Si       0.62378    0.70110    0.63738    1.000
    N3929    N        0.49250    0.69508    0.49740    1.000
    N3930    N        0.49946    0.66913    0.75671    1.000
    Si3931   Si       0.52612    0.70392    0.75476    1.000
    N3932    N        0.57920    0.66042    0.81639    1.000
    N3933    N        0.54019    0.71421    0.86139    1.000
    Si3934   Si       0.61075    0.68808    0.80527    1.000
    N3935    N        0.62835    0.68594    0.76434    1.000
    N3936    N        0.64647    0.68754    0.83029    1.000
    N3937    N        0.70679    0.68551    0.84621    1.000
    Si3938   Si       0.73231    0.66970    0.77196    1.000
    N3939    N        0.72566    0.71309    0.77186    1.000
    Si3940   Si       0.49876    0.69757    0.87300    1.000
    N3941    N        0.60058    0.69126    0.95211    1.000
    N3942    N        0.58010    0.67101    0.89166    1.000
    N3943    N        0.53863    0.70119    0.98370    1.000
    Si3944   Si       0.53754    0.65877    0.99061    1.000
    N3945    N        0.67806    0.67784    0.96185    1.000
    Si3946   Si       0.57187    0.71386    0.88961    1.000
    Si3947   Si       0.63965    0.70115    0.96479    1.000
    Si3948   Si       0.67338    0.65963    0.85205    1.000
    N3949    N        0.57767    0.72842    0.05250    1.000
    N3950    N        0.51567    0.73701    0.08752    1.000
    Si3951   Si       0.53576    0.74725    0.04973    1.000
    N3952    N        0.49963    0.73087    0.02838    1.000
    Si3953   Si       0.60888    0.74095    0.02287    1.000
    Si3954   Si       0.68176    0.75091    0.03826    1.000
    N3955    N        0.64068    0.76404    0.04395    1.000
    N3956    N        0.68376    0.72079    0.07030    1.000
    N3957    N        0.69478    0.72906    0.00312    1.000
    Si3958   Si       0.71083    0.71521    0.10212    1.000
    N3959    N        0.56490    0.74770    0.13623    1.000
    Si3960   Si       0.52288    0.73625    0.13283    1.000
    N3961    N        0.55977    0.75494    0.20347    1.000
    Si3962   Si       0.58419    0.73437    0.17341    1.000
    N3963    N        0.50416    0.76775    0.15818    1.000
    Si3964   Si       0.70679    0.74292    0.17560    1.000
    N3965    N        0.62672    0.74078    0.16857    1.000
    Si3966   Si       0.64664    0.73386    0.13111    1.000
    N3967    N        0.68862    0.72484    0.14013    1.000
    Si3968   Si       0.64701    0.75714    0.20233    1.000
    N3969    N        0.62106    0.75653    0.23697    1.000
    N3970    N        0.68260    0.73869    0.21339    1.000
    N3971    N        0.51167    0.77243    0.24165    1.000
    N3972    N        0.55711    0.75079    0.33626    1.000
    Si3973   Si       0.51825    0.74160    0.31910    1.000
    N3974    N        0.56605    0.76911    0.26885    1.000
    N3975    N        0.51444    0.72118    0.28106    1.000
    Si3976   Si       0.54050    0.73579    0.24527    1.000
    Si3977   Si       0.61289    0.71624    0.25423    1.000
    N3978    N        0.68332    0.75425    0.28288    1.000
    Si3979   Si       0.65207    0.75067    0.31109    1.000
    N3980    N        0.66690    0.73302    0.34792    1.000
    Si3981   Si       0.69780    0.72945    0.25226    1.000
    Si3982   Si       0.69719    0.75296    0.37139    1.000
    N3983    N        0.62464    0.71953    0.29620    1.000
    Si3984   Si       0.56497    0.72778    0.37339    1.000
    Si3985   Si       0.52625    0.77034    0.42124    1.000
    N3986    N        0.60282    0.73678    0.47778    1.000
    N3987    N        0.56352    0.75525    0.40713    1.000
    N3988    N        0.51527    0.73313    0.44505    1.000
    Si3989   Si       0.49887    0.73521    0.48441    1.000
    Si3990   Si       0.68463    0.73974    0.43520    1.000
    N3991    N        0.66834    0.74970    0.47237    1.000
    N3992    N        0.72690    0.72483    0.44197    1.000
    Si3993   Si       0.62941    0.76766    0.47431    1.000
    N3994    N        0.68330    0.77408    0.40738    1.000
    N3995    N        0.57611    0.75358    0.60605    1.000
    N3996    N        0.59370    0.73604    0.54441    1.000
    N3997    N        0.53429    0.75352    0.50604    1.000
    Si3998   Si       0.57150    0.73349    0.50911    1.000
    Si3999   Si       0.57971    0.71798    0.58174    1.000
    N4000    N        0.51070    0.77119    0.57460    1.000
    N4001    N        0.71082    0.74756    0.59794    1.000
    Si4002   Si       0.63194    0.75694    0.54438    1.000
    N4003    N        0.72422    0.75305    0.52063    1.000
    Si4004   Si       0.68781    0.73184    0.50684    1.000
    N4005    N        0.65866    0.72270    0.53694    1.000
    N4006    N        0.49743    0.72928    0.62704    1.000
    N4007    N        0.53896    0.73832    0.68658    1.000
    Si4008   Si       0.49990    0.72849    0.66957    1.000
    N4009    N        0.60977    0.72797    0.70975    1.000
    Si4010   Si       0.62197    0.75989    0.68240    1.000
    N4011    N        0.70978    0.76591    0.73508    1.000
    Si4012   Si       0.64069    0.71577    0.73714    1.000
    N4013    N        0.72378    0.76834    0.66526    1.000
    N4014    N        0.63177    0.74408    0.64370    1.000
    Si4015   Si       0.71102    0.72293    0.73211    1.000
    Si4016   Si       0.61547    0.77317    0.61435    1.000
    N4017    N        0.64422    0.77417    0.58260    1.000
    N4018    N        0.59174    0.72683    0.80583    1.000
    Si4019   Si       0.55181    0.73429    0.82449    1.000
    N4020    N        0.52715    0.72929    0.78885    1.000
    Si4021   Si       0.49433    0.75377    0.77240    1.000
    Si4022   Si       0.61008    0.76239    0.78860    1.000
    N4023    N        0.55610    0.77504    0.84003    1.000
    N4024    N        0.68889    0.75480    0.82331    1.000
    N4025    N        0.64275    0.75333    0.75973    1.000
    Si4026   Si       0.72826    0.74817    0.79994    1.000
    Si4027   Si       0.67715    0.71800    0.84210    1.000
    N4028    N        0.49800    0.75374    0.95914    1.000
    N4029    N        0.60421    0.74287    0.88422    1.000
    Si4030   Si       0.51443    0.74736    0.91949    1.000
    N4031    N        0.58700    0.75540    0.98758    1.000
    N4032    N        0.55133    0.72584    0.92614    1.000
    Si4033   Si       0.49830    0.72118    0.98763    1.000
    Si4034   Si       0.57164    0.72206    0.96407    1.000
    N4035    N        0.65292    0.73769    0.94595    1.000
    Si4036   Si       0.64307    0.74765    0.90602    1.000
    N4037    N        0.67365    0.72869    0.88237    1.000
    Si4038   Si       0.69479    0.74136    0.96099    1.000
    N4039    N        0.73172    0.72818    0.94273    1.000
    N4040    N        0.53690    0.78930    0.04303    1.000
    N4041    N        0.58891    0.79501    0.08402    1.000
    N4042    N        0.59690    0.81946    0.01728    1.000
    Si4043   Si       0.49991    0.80820    0.03377    1.000
    Si4044   Si       0.56823    0.81771    0.05260    1.000
    Si4045   Si       0.62999    0.78890    0.07903    1.000
    N4046    N        0.70897    0.78387    0.04976    1.000
    Si4047   Si       0.71134    0.82319    0.02795    1.000
    N4048    N        0.67131    0.82622    0.00912    1.000
    N4049    N        0.73318    0.81288    0.11477    1.000
    N4050    N        0.64572    0.77495    0.11639    1.000
    N4051    N        0.64373    0.83047    0.07282    1.000
    N4052    N        0.53528    0.81405    0.12159    1.000
    Si4053   Si       0.57318    0.79129    0.12482    1.000
    N4054    N        0.51329    0.81749    0.19389    1.000
    Si4055   Si       0.50245    0.81077    0.14890    1.000
    N4056    N        0.57895    0.82168    0.23049    1.000
    N4057    N        0.59615    0.80539    0.15816    1.000
    Si4058   Si       0.58435    0.77871    0.23174    1.000
    N4059    N        0.69865    0.81207    0.24582    1.000
    Si4060   Si       0.52014    0.77266    0.19769    1.000
    Si4061   Si       0.63805    0.80033    0.15071    1.000
    Si4062   Si       0.69511    0.81305    0.20333    1.000
    N4063    N        0.71933    0.78487    0.17933    1.000
    N4064    N        0.65650    0.79851    0.18892    1.000
    Si4065   Si       0.53081    0.79611    0.27808    1.000
    N4066    N        0.55814    0.81379    0.31097    1.000
    N4067    N        0.50683    0.78257    0.31250    1.000
    Si4068   Si       0.53029    0.80278    0.34927    1.000
    Si4069   Si       0.58314    0.77642    0.30930    1.000
    Si4070   Si       0.63951    0.82149    0.33643    1.000
    Si4071   Si       0.71878    0.81935    0.32986    1.000
    N4072    N        0.72084    0.78252    0.35120    1.000
    N4073    N        0.62442    0.78413    0.31791    1.000
    N4074    N        0.67807    0.82632    0.31615    1.000
    N4075    N        0.55864    0.82805    0.37542    1.000
    N4076    N        0.52860    0.80808    0.44301    1.000
    N4077    N        0.50613    0.77960    0.38279    1.000
    Si4078   Si       0.50999    0.83262    0.47716    1.000
    N4079    N        0.71203    0.82197    0.49571    1.000
    N4080    N        0.63178    0.82239    0.37842    1.000
    Si4081   Si       0.65335    0.80567    0.41136    1.000
    N4082    N        0.62392    0.79661    0.44423    1.000
    N4083    N        0.49958    0.83443    0.34996    1.000
    Si4084   Si       0.55012    0.83529    0.41840    1.000
    N4085    N        0.55859    0.81714    0.57997    1.000
    N4086    N        0.50648    0.81930    0.52213    1.000
    Si4087   Si       0.54417    0.78192    0.60017    1.000
    N4088    N        0.57368    0.82131    0.50881    1.000
    Si4089   Si       0.50658    0.77665    0.53251    1.000
    Si4090   Si       0.69098    0.79582    0.67045    1.000
    Si4091   Si       0.61522    0.82769    0.51904    1.000
    N4092    N        0.63388    0.78796    0.51387    1.000
    N4093    N        0.70528    0.81638    0.56865    1.000
    Si4094   Si       0.68495    0.78146    0.59174    1.000
    Si4095   Si       0.72067    0.82653    0.60740    1.000
    N4096    N        0.68483    0.80816    0.62872    1.000
    N4097    N        0.61251    0.81629    0.62306    1.000
    N4098    N        0.52821    0.78977    0.63966    1.000
    N4099    N        0.52161    0.81321    0.69952    1.000
    N4100    N        0.58802    0.78596    0.67545    1.000
    Si4101   Si       0.54523    0.78066    0.67903    1.000
    Si4102   Si       0.60142    0.82766    0.67125    1.000
    Si4103   Si       0.49027    0.81069    0.73092    1.000
    Si4104   Si       0.66873    0.78016    0.73764    1.000
    N4105    N        0.61205    0.82857    0.71374    1.000
    N4106    N        0.65679    0.78400    0.69475    1.000
    N4107    N        0.58549    0.79422    0.77393    1.000
    Si4108   Si       0.54608    0.81311    0.77857    1.000
    N4109    N        0.51179    0.79081    0.76440    1.000
    Si4110   Si       0.52715    0.80736    0.84323    1.000
    Si4111   Si       0.59589    0.77892    0.85929    1.000
    Si4112   Si       0.59784    0.83094    0.75397    1.000
    Si4113   Si       0.66565    0.78739    0.84282    1.000
    N4114    N        0.67384    0.82464    0.82399    1.000
    N4115    N        0.62469    0.78037    0.82662    1.000
    N4116    N        0.66685    0.82022    0.75142    1.000
    N4117    N        0.59187    0.81385    0.88935    1.000
    N4118    N        0.52520    0.78662    0.90805    1.000
    Si4119   Si       0.55543    0.81833    0.91136    1.000
    Si4120   Si       0.59085    0.80053    0.97771    1.000
    N4121    N        0.56593    0.82671    0.95181    1.000
    N4122    N        0.49115    0.81431    0.98865    1.000
    Si4123   Si       0.72681    0.81431    0.95409    1.000
    N4124    N        0.62732    0.80637    0.95259    1.000
    Si4125   Si       0.66619    0.81357    0.96943    1.000
    Si4126   Si       0.62852    0.82092    0.91095    1.000
    N4127    N        0.69762    0.78376    0.96465    1.000
    N4128    N        0.65063    0.78956    0.88671    1.000
    N4129    N        0.48735    0.79351    0.85268    1.000
    Si4130   Si       0.48860    0.81360    0.89146    1.000
    N4131    N        0.57194    0.85742    0.07373    1.000
    Si4132   Si       0.54844    0.85408    0.11234    1.000
    N4133    N        0.50719    0.85141    0.03874    1.000
    N4134    N        0.51483    0.88047    0.10502    1.000
    Si4135   Si       0.49729    0.88319    0.06635    1.000
    Si4136   Si       0.59699    0.88877    0.05943    1.000
    Si4137   Si       0.67379    0.86879    0.15650    1.000
    Si4138   Si       0.64921    0.86396    0.09991    1.000
    N4139    N        0.72229    0.85228    0.05853    1.000
    Si4140   Si       0.72545    0.85229    0.10248    1.000
    N4141    N        0.62835    0.87880    0.02740    1.000
    N4142    N        0.68962    0.87148    0.11711    1.000
    Si4143   Si       0.63494    0.83647    0.03121    1.000
    Si4144   Si       0.53981    0.83863    0.22199    1.000
    N4145    N        0.54331    0.88118    0.21384    1.000
    Si4146   Si       0.60291    0.84872    0.16460    1.000
    N4147    N        0.56933    0.86864    0.14765    1.000
    Si4148   Si       0.60533    0.85291    0.24035    1.000
    N4149    N        0.61419    0.86872    0.20093    1.000
    Si4150   Si       0.73932    0.87215    0.18607    1.000
    N4151    N        0.63924    0.84587    0.14008    1.000
    N4152    N        0.70183    0.85229    0.18669    1.000
    Si4153   Si       0.57474    0.85291    0.30627    1.000
    N4154    N        0.58349    0.87662    0.27031    1.000
    Si4155   Si       0.52219    0.86972    0.36343    1.000
    N4156    N        0.55014    0.88311    0.33022    1.000
    N4157    N        0.52113    0.83651    0.26163    1.000
    N4158    N        0.61086    0.85224    0.33103    1.000
    Si4159   Si       0.59695    0.85048    0.37337    1.000
    N4160    N        0.69732    0.88717    0.39339    1.000
    N4161    N        0.70923    0.87248    0.27366    1.000
    Si4162   Si       0.68071    0.83922    0.27369    1.000
    N4163    N        0.63985    0.84241    0.26219    1.000
    N4164    N        0.58790    0.85464    0.43090    1.000
    N4165    N        0.52377    0.87424    0.47675    1.000
    N4166    N        0.52270    0.86975    0.40705    1.000
    Si4167   Si       0.67049    0.88345    0.42728    1.000
    N4168    N        0.73364    0.83549    0.42927    1.000
    Si4169   Si       0.70283    0.84189    0.45899    1.000
    Si4170   Si       0.73373    0.86297    0.39410    1.000
    N4171    N        0.69157    0.88403    0.46629    1.000
    N4172    N        0.66556    0.84153    0.43422    1.000
    Si4173   Si       0.62335    0.84246    0.45054    1.000
    N4174    N        0.62970    0.85819    0.49207    1.000
    Si4175   Si       0.51506    0.89487    0.44020    1.000
    Si4176   Si       0.66126    0.89001    0.49495    1.000
    N4177    N        0.55055    0.87485    0.54105    1.000
    N4178    N        0.58204    0.87870    0.60383    1.000
    Si4179   Si       0.59252    0.83889    0.59293    1.000
    Si4180   Si       0.54549    0.83091    0.53928    1.000
    N4181    N        0.61836    0.84228    0.55911    1.000
    N4182    N        0.66029    0.86923    0.60334    1.000
    Si4183   Si       0.64403    0.87550    0.56339    1.000
    N4184    N        0.67667    0.88204    0.53519    1.000
    Si4185   Si       0.72947    0.83517    0.53672    1.000
    Si4186   Si       0.52569    0.85147    0.67875    1.000
    N4187    N        0.56746    0.85542    0.66758    1.000
    N4188    N        0.51858    0.88416    0.70560    1.000
    N4189    N        0.49229    0.84423    0.65201    1.000
    Si4190   Si       0.54502    0.88530    0.74090    1.000
    Si4191   Si       0.65217    0.83478    0.62700    1.000
    Si4192   Si       0.73251    0.85588    0.70610    1.000
    N4193    N        0.72545    0.86380    0.62561    1.000
    Si4194   Si       0.65642    0.84269    0.70941    1.000
    N4195    N        0.64690    0.88728    0.71852    1.000
    N4196    N        0.64299    0.85260    0.66676    1.000
    N4197    N        0.69862    0.83323    0.69352    1.000
    Si4198   Si       0.52051    0.89201    0.51562    1.000
    Si4199   Si       0.57644    0.89245    0.64571    1.000
    Si4200   Si       0.51190    0.87361    0.81345    1.000
    N4201    N        0.55789    0.84577    0.75149    1.000
    N4202    N        0.52921    0.83402    0.81130    1.000
    N4203    N        0.62219    0.85848    0.77775    1.000
    Si4204   Si       0.70149    0.85152    0.84438    1.000
    N4205    N        0.68887    0.87979    0.78516    1.000
    Si4206   Si       0.66247    0.84490    0.78765    1.000
    N4207    N        0.68032    0.88474    0.86052    1.000
    Si4208   Si       0.72932    0.86425    0.77977    1.000
    N4209    N        0.69032    0.84048    0.94363    1.000
    Si4210   Si       0.56144    0.86997    0.95651    1.000
    Si4211   Si       0.53125    0.88258    0.88847    1.000
    N4212    N        0.56684    0.88210    0.91440    1.000
    N4213    N        0.52902    0.88542    0.97966    1.000
    N4214    N        0.52842    0.83891    0.88045    1.000
    N4215    N        0.60077    0.88772    0.96606    1.000
    N4216    N        0.63769    0.86321    0.90929    1.000
    N4217    N        0.71494    0.83684    0.88134    1.000
    Si4218   Si       0.68452    0.86453    0.90562    1.000
    Si4219   Si       0.49929    0.85658    0.99541    1.000
    N4220    N        0.51399    0.91919    0.04751    1.000
    N4221    N        0.57829    0.91407    0.02711    1.000
    Si4222   Si       0.53800    0.91551    0.01085    1.000
    N4223    N        0.50614    0.95324    0.23591    1.000
    N4224    N        0.62645    0.89991    0.08887    1.000
    Si4225   Si       0.63847    0.94233    0.09079    1.000
    Si4226   Si       0.61338    0.91043    0.99984    1.000
    Si4227   Si       0.55760    0.90050    0.17468    1.000
    N4228    N        0.51964    0.92073    0.16450    1.000
    N4229    N        0.59148    0.92861    0.17527    1.000
    Si4230   Si       0.49872    0.91371    0.12738    1.000
    Si4231   Si       0.49748    0.94341    0.19592    1.000
    N4232    N        0.65987    0.90840    0.16935    1.000
    N4233    N        0.73199    0.91340    0.16596    1.000
    Si4234   Si       0.69577    0.93433    0.17702    1.000
    Si4235   Si       0.62621    0.91009    0.19742    1.000
    N4236    N        0.70230    0.93441    0.22041    1.000
    N4237    N        0.63059    0.92697    0.23749    1.000
    Si4238   Si       0.58190    0.91340    0.34068    1.000
    Si4239   Si       0.60430    0.91745    0.27108    1.000
    Si4240   Si       0.51885    0.91953    0.31853    1.000
    N4241    N        0.50836    0.89960    0.27630    1.000
    N4242    N        0.55187    0.94519    0.33265    1.000
    N4243    N        0.56613    0.93622    0.26016    1.000
    Si4244   Si       0.54607    0.89737    0.25459    1.000
    N4245    N        0.49349    0.90247    0.34904    1.000
    N4246    N        0.61366    0.92461    0.31188    1.000
    Si4247   Si       0.71210    0.91290    0.29072    1.000
    N4248    N        0.67543    0.93406    0.28671    1.000
    N4249    N        0.66600    0.93840    0.35664    1.000
    N4250    N        0.72643    0.90993    0.33015    1.000
    Si4251   Si       0.70209    0.91930    0.36520    1.000
    Si4252   Si       0.64957    0.95070    0.31762    1.000
    N4253    N        0.55140    0.92116    0.43800    1.000
    Si4254   Si       0.59092    0.90079    0.42347    1.000
    Si4255   Si       0.63817    0.94411    0.45367    1.000
    N4256    N        0.63367    0.90337    0.43494    1.000
    N4257    N        0.64840    0.93207    0.49519    1.000
    Si4258   Si       0.56579    0.95018    0.47117    1.000
    N4259    N        0.59056    0.89501    0.38023    1.000
    Si4260   Si       0.66904    0.94346    0.24401    1.000
    N4261    N        0.55400    0.93616    0.57229    1.000
    Si4262   Si       0.57527    0.89917    0.56716    1.000
    N4263    N        0.51911    0.93573    0.51482    1.000
    N4264    N        0.72493    0.89859    0.70608    1.000
    N4265    N        0.61577    0.90790    0.55642    1.000
    Si4266   Si       0.55132    0.94929    0.61162    1.000
    Si4267   Si       0.61722    0.93953    0.52564    1.000
    N4268    N        0.70498    0.92027    0.58608    1.000
    N4269    N        0.71097    0.93887    0.52176    1.000
    Si4270   Si       0.71151    0.90370    0.54546    1.000
    Si4271   Si       0.69405    0.89438    0.61904    1.000
    N4272    N        0.54414    0.92144    0.64489    1.000
    N4273    N        0.60760    0.91412    0.66558    1.000
    N4274    N        0.58126    0.90948    0.74168    1.000
    N4275    N        0.67763    0.91680    0.65184    1.000
    Si4276   Si       0.64639    0.89838    0.67623    1.000
    Si4277   Si       0.54015    0.93376    0.82861    1.000
    N4278    N        0.57250    0.94023    0.80240    1.000
    Si4279   Si       0.49475    0.93404    0.77139    1.000
    N4280    N        0.51999    0.89508    0.77617    1.000
    N4281    N        0.52719    0.89589    0.84676    1.000
    Si4282   Si       0.56865    0.94706    0.75784    1.000
    Si4283   Si       0.61632    0.94807    0.81094    1.000
    N4284    N        0.62530    0.93410    0.85091    1.000
    N4285    N        0.63637    0.92510    0.78138    1.000
    Si4286   Si       0.66676    0.92493    0.86055    1.000
    Si4287   Si       0.68041    0.92407    0.78494    1.000
    N4288    N        0.68685    0.94005    0.82296    1.000
    Si4289   Si       0.62215    0.89485    0.75396    1.000
    N4290    N        0.60892    0.93610    0.91850    1.000
    Si4291   Si       0.50069    0.91705    0.95935    1.000
    N4292    N        0.52231    0.94804    0.98400    1.000
    N4293    N        0.50192    0.89599    0.92017    1.000
    Si4294   Si       0.60746    0.89336    0.92187    1.000
    Si4295   Si       0.72336    0.93185    0.89697    1.000
    N4296    N        0.70777    0.89804    0.91890    1.000
    N4297    N        0.63212    0.94817    0.98753    1.000
    N4298    N        0.50184    0.94887    0.81231    1.000
    N4299    N        0.70122    0.94590    0.75430    1.000
    N4300    N        0.55701    0.97729    0.07897    1.000
    Si4301   Si       0.58929    0.98581    0.05203    1.000
    N4302    N        0.50263    0.98826    0.03652    1.000
    N4303    N        0.57194    0.99286    0.01176    1.000
    Si4304   Si       0.51628    0.95728    0.06681    1.000
    Si4305   Si       0.52846    0.98690    0.00043    1.000
    N4306    N        0.62555    0.96349    0.12737    1.000
    N4307    N        0.69628    0.96459    0.03044    1.000
    Si4308   Si       0.65403    0.97145    0.01807    1.000
    N4309    N        0.62804    0.96280    0.05238    1.000
    Si4310   Si       0.71844    0.99503    0.00979    1.000
    N4311    N        0.68144    0.95939    0.09613    1.000
    Si4312   Si       0.71697    0.96216    0.06909    1.000
    N4313    N        0.73689    0.00329    0.07849    1.000
    N4314    N        0.55826    0.99749    0.22060    1.000
    N4315    N        0.50134    0.98130    0.17516    1.000
    Si4316   Si       0.59884    0.96871    0.16202    1.000
    N4317    N        0.56366    0.99337    0.15123    1.000
    Si4318   Si       0.53600    0.00623    0.18297    1.000
    Si4319   Si       0.66411    0.98318    0.12891    1.000
    N4320    N        0.68012    0.97644    0.16875    1.000
    N4321    N        0.61735    0.99639    0.18973    1.000
    N4322    N        0.66064    0.98638    0.23821    1.000
    Si4323   Si       0.65938    0.00123    0.19747    1.000
    N4324    N        0.49826    0.94961    0.10633    1.000
    Si4325   Si       0.55329    0.98341    0.35057    1.000
    Si4326   Si       0.50147    0.99497    0.30459    1.000
    N4327    N        0.53915    0.00114    0.28323    1.000
    N4328    N        0.51277    0.00286    0.34762    1.000
    Si4329   Si       0.54272    0.97123    0.25158    1.000
    N4330    N        0.49192    0.95428    0.30434    1.000
    N4331    N        0.72159    0.94964    0.39175    1.000
    N4332    N        0.64982    0.99506    0.31288    1.000
    N4333    N        0.69038    0.00026    0.37188    1.000
    Si4334   Si       0.49202    0.00461    0.38425    1.000
    N4335    N        0.53652    0.97782    0.45906    1.000
    Si4336   Si       0.59433    0.99028    0.41251    1.000
    N4337    N        0.55819    0.97644    0.39208    1.000
    Si4338   Si       0.53233    0.95843    0.41989    1.000
    N4339    N        0.59977    0.96061    0.44419    1.000
    N4340    N        0.49230    0.96693    0.40712    1.000
    Si4341   Si       0.51386    0.00692    0.48368    1.000
    Si4342   Si       0.72636    0.99326    0.39449    1.000
    Si4343   Si       0.68135    0.00392    0.44800    1.000
    N4344    N        0.68363    0.99584    0.48990    1.000
    N4345    N        0.62435    0.99136    0.38193    1.000
    N4346    N        0.66698    0.96677    0.43108    1.000
    Si4347   Si       0.66288    0.97200    0.38813    1.000
    N4348    N        0.51324    0.99601    0.52915    1.000
    Si4349   Si       0.54788    0.96602    0.53591    1.000
    N4350    N        0.57164    0.99783    0.56036    1.000
    N4351    N        0.59409    0.96371    0.61827    1.000
    Si4352   Si       0.60878    0.97936    0.57949    1.000
    N4353    N        0.58055    0.95326    0.51085    1.000
    Si4354   Si       0.70845    0.96217    0.58443    1.000
    Si4355   Si       0.67451    0.96523    0.52162    1.000
    N4356    N        0.69504    0.99088    0.55243    1.000
    N4357    N        0.63793    0.97090    0.54691    1.000
    N4358    N        0.68117    0.97935    0.61291    1.000
    Si4359   Si       0.66782    0.00797    0.58257    1.000
    N4360    N        0.52251    0.97562    0.62760    1.000
    Si4361   Si       0.52898    0.95757    0.66704    1.000
    Si4362   Si       0.50393    0.98574    0.72926    1.000
    N4363    N        0.56804    0.97370    0.68034    1.000
    N4364    N        0.49404    0.97242    0.68873    1.000
    Si4365   Si       0.57689    0.00468    0.71275    1.000
    Si4366   Si       0.60112    0.95614    0.66038    1.000
    N4367    N        0.71533    0.96941    0.67408    1.000
    Si4368   Si       0.67853    0.96192    0.65327    1.000
    N4369    N        0.64110    0.96899    0.67550    1.000
    Si4370   Si       0.71986    0.00996    0.68840    1.000
    N4371    N        0.66062    0.00001    0.74546    1.000
    Si4372   Si       0.64774    0.00435    0.70258    1.000
    Si4373   Si       0.48521    0.98054    0.60722    1.000
    Si4374   Si       0.48880    0.95944    0.53316    1.000
    N4375    N        0.59338    0.98162    0.74711    1.000
    N4376    N        0.52932    0.95602    0.74648    1.000
    N4377    N        0.55571    0.95525    0.86389    1.000
    N4378    N        0.65938    0.98761    0.93584    1.000
    Si4379   Si       0.53280    0.99150    0.86550    1.000
    N4380    N        0.72391    0.99192    0.96792    1.000
    N4381    N        0.68823    0.95578    0.88225    1.000
    N4382    N        0.62369    0.99064    0.80940    1.000
    Si4383   Si       0.69937    0.97834    0.84064    1.000
    Si4384   Si       0.69948    0.98827    0.75631    1.000
    N4385    N        0.71290    0.99759    0.79794    1.000
    Si4386   Si       0.62347    0.00617    0.76741    1.000
    Si4387   Si       0.67363    0.99289    0.89576    1.000
    Si4388   Si       0.62354    0.96609    0.94856    1.000
    Si4389   Si       0.59740    0.95189    0.87899    1.000
    N4390    N        0.59334    0.99911    0.94812    1.000
    N4391    N        0.61050    0.99525    0.88240    1.000
    N4392    N        0.54171    0.00830    0.90416    1.000
    N4393    N        0.84583    0.05039    0.08037    1.000
    N4394    N        0.79456    0.04161    0.03346    1.000
    Si4395   Si       0.83862    0.03884    0.03859    1.000
    Si4396   Si       0.82500    0.02348    0.10594    1.000
    Si4397   Si       0.76345    0.05645    0.00793    1.000
    N4398    N        0.86035    0.06613    0.01197    1.000
    Si4399   Si       0.95866    0.02176    0.00368    1.000
    N4400    N        0.96250    0.01697    0.10538    1.000
    Si4401   Si       0.95276    0.04674    0.07282    1.000
    N4402    N        0.97873    0.03414    0.03964    1.000
    N4403    N        0.91139    0.06017    0.06208    1.000
    N4404    N        0.78846    0.03374    0.12756    1.000
    N4405    N        0.78813    0.04246    0.20357    1.000
    Si4406   Si       0.79794    0.05702    0.16272    1.000
    Si4407   Si       0.79484    0.02243    0.24063    1.000
    Si4408   Si       0.75344    0.00821    0.12234    1.000
    N4409    N        0.94347    0.01653    0.21676    1.000
    Si4410   Si       0.98143    0.03187    0.20203    1.000
    Si4411   Si       0.91666    0.04877    0.22688    1.000
    N4412    N        0.97352    0.05360    0.16412    1.000
    N4413    N        0.87717    0.03592    0.24112    1.000
    Si4414   Si       0.77410    0.00595    0.05195    1.000
    N4415    N        0.81497    0.05205    0.26531    1.000
    Si4416   Si       0.74964    0.03653    0.33568    1.000
    N4417    N        0.78772    0.05460    0.33246    1.000
    Si4418   Si       0.81633    0.05531    0.36551    1.000
    N4419    N        0.75698    0.01094    0.25842    1.000
    N4420    N        0.75701    0.01087    0.37185    1.000
    N4421    N        0.98379    0.03612    0.29739    1.000
    Si4422   Si       0.98867    0.02269    0.37107    1.000
    N4423    N        0.82399    0.01380    0.37438    1.000
    N4424    N        0.89068    0.02763    0.37573    1.000
    Si4425   Si       0.81783    0.05997    0.44370    1.000
    N4426    N        0.84846    0.02943    0.43701    1.000
    N4427    N        0.78240    0.03468    0.45496    1.000
    Si4428   Si       0.95289    0.01288    0.43448    1.000
    N4429    N        0.97951    0.06239    0.37588    1.000
    N4430    N        0.94210    0.05465    0.43462    1.000
    Si4431   Si       0.98024    0.06826    0.26695    1.000
    Si4432   Si       0.85883    0.00811    0.39961    1.000
    Si4433   Si       0.82539    0.03059    0.54103    1.000
    N4434    N        0.77861    0.02943    0.60680    1.000
    N4435    N        0.79789    0.06571    0.54536    1.000
    N4436    N        0.82568    0.02151    0.49879    1.000
    N4437    N        0.86784    0.03290    0.55197    1.000
    Si4438   Si       0.95994    0.01801    0.60774    1.000
    N4439    N        0.91627    0.01745    0.60069    1.000
    N4440    N        0.90818    0.04668    0.49588    1.000
    N4441    N        0.98683    0.02317    0.57433    1.000
    Si4442   Si       0.74302    0.05164    0.73893    1.000
    N4443    N        0.74725    0.03481    0.66789    1.000
    Si4444   Si       0.81489    0.02408    0.72099    1.000
    N4445    N        0.85355    0.04111    0.71116    1.000
    N4446    N        0.78724    0.05498    0.73643    1.000
    Si4447   Si       0.77863    0.01250    0.64802    1.000
    N4448    N        0.80748    0.00808    0.68121    1.000
    N4449    N        0.85901    0.05319    0.63901    1.000
    Si4450   Si       0.86736    0.02583    0.67413    1.000
    Si4451   Si       0.90190    0.04738    0.62938    1.000
    N4452    N        0.97167    0.04446    0.64116    1.000
    Si4453   Si       0.95383    0.03148    0.67726    1.000
    N4454    N        0.91067    0.03147    0.66935    1.000
    N4455    N        0.96599    0.05697    0.70778    1.000
    N4456    N        0.73854    0.03542    0.55572    1.000
    N4457    N        0.78491    0.02565    0.80700    1.000
    N4458    N        0.85386    0.05370    0.82178    1.000
    Si4459   Si       0.74116    0.02732    0.81034    1.000
    Si4460   Si       0.81220    0.06296    0.81792    1.000
    Si4461   Si       0.87125    0.01171    0.81826    1.000
    N4462    N        0.95400    0.03694    0.78757    1.000
    Si4463   Si       0.92192    0.03161    0.76052    1.000
    N4464    N        0.95550    0.05646    0.85854    1.000
    Si4465   Si       0.76284    0.06261    0.87575    1.000
    N4466    N        0.84056    0.04415    0.94466    1.000
    N4467    N        0.77578    0.02826    0.90147    1.000
    Si4468   Si       0.79874    0.02992    0.93962    1.000
    N4469    N        0.77566    0.05659    0.96384    1.000
    Si4470   Si       0.92411    0.06298    0.88843    1.000
    N4471    N        0.97157    0.02417    0.95944    1.000
    N4472    N        0.90757    0.03623    0.91864    1.000
    Si4473   Si       0.93601    0.05012    0.94846    1.000
    Si4474   Si       0.87146    0.01578    0.93072    1.000
    N4475    N        0.92644    0.05024    0.99171    1.000
    N4476    N        0.89285    0.00698    0.78251    1.000
    N4477    N        0.75635    0.09905    0.00453    1.000
    Si4478   Si       0.75334    0.11411    0.08478    1.000
    N4479    N        0.90524    0.07342    0.12788    1.000
    N4480    N        0.87488    0.11797    0.08620    1.000
    N4481    N        0.97308    0.08100    0.09413    1.000
    N4482    N        0.90598    0.11386    0.01679    1.000
    Si4483   Si       0.90246    0.07112    0.02126    1.000
    Si4484   Si       0.88136    0.07543    0.09150    1.000
    Si4485   Si       0.98888    0.11895    0.08487    1.000
    N4486    N        0.76477    0.08593    0.16711    1.000
    N4487    N        0.84689    0.09791    0.21942    1.000
    N4488    N        0.77558    0.10941    0.23313    1.000
    Si4489   Si       0.76140    0.07523    0.21090    1.000
    N4490    N        0.83805    0.07031    0.15801    1.000
    Si4491   Si       0.81412    0.12505    0.21867    1.000
    N4492    N        0.74639    0.12525    0.12503    1.000
    N4493    N        0.90796    0.07491    0.19316    1.000
    N4494    N        0.94883    0.11766    0.16288    1.000
    Si4495   Si       0.93452    0.07582    0.15821    1.000
    Si4496   Si       0.86976    0.09178    0.18011    1.000
    N4497    N        0.81539    0.11137    0.29533    1.000
    Si4498   Si       0.85407    0.10668    0.31367    1.000
    Si4499   Si       0.78836    0.07588    0.29364    1.000
    N4500    N        0.84990    0.07638    0.34693    1.000
    N4501    N        0.74477    0.07362    0.28875    1.000
    Si4502   Si       0.85106    0.06939    0.25182    1.000
    N4503    N        0.87565    0.09080    0.28025    1.000
    Si4504   Si       0.91843    0.09023    0.29041    1.000
    N4505    N        0.93789    0.06998    0.25766    1.000
    N4506    N        0.91937    0.06526    0.32624    1.000
    N4507    N        0.88909    0.10060    0.45601    1.000
    N4508    N        0.80851    0.07746    0.40356    1.000
    N4509    N        0.81735    0.09012    0.47447    1.000
    Si4510   Si       0.85558    0.10979    0.48135    1.000
    Si4511   Si       0.74845    0.11886    0.42492    1.000
    Si4512   Si       0.80874    0.12069    0.39733    1.000
    N4513    N        0.74972    0.11570    0.38272    1.000
    N4514    N        0.90897    0.09399    0.38804    1.000
    N4515    N        0.97412    0.11443    0.40896    1.000
    N4516    N        0.95229    0.10728    0.48134    1.000
    Si4517   Si       0.89167    0.12349    0.41835    1.000
    Si4518   Si       0.94834    0.08065    0.40071    1.000
    Si4519   Si       0.92367    0.07621    0.46763    1.000
    Si4520   Si       0.89190    0.06721    0.35898    1.000
    N4521    N        0.80397    0.09029    0.60769    1.000
    Si4522   Si       0.79186    0.09804    0.51419    1.000
    N4523    N        0.74183    0.09243    0.59360    1.000
    N4524    N        0.75207    0.11364    0.50019    1.000
    Si4525   Si       0.77706    0.06760    0.58415    1.000
    N4526    N        0.86455    0.11016    0.59058    1.000
    N4527    N        0.86369    0.09834    0.52312    1.000
    Si4528   Si       0.90969    0.10760    0.58777    1.000
    N4529    N        0.92370    0.08934    0.54752    1.000
    Si4530   Si       0.95820    0.10331    0.52308    1.000
    N4531    N        0.91997    0.08398    0.62074    1.000
    N4532    N        0.96034    0.12223    0.72621    1.000
    Si4533   Si       0.89104    0.06650    0.53037    1.000
    Si4534   Si       0.75944    0.11793    0.62413    1.000
    Si4535   Si       0.84325    0.09241    0.62654    1.000
    N4536    N        0.83727    0.11550    0.66394    1.000
    N4537    N        0.76936    0.10425    0.66686    1.000
    N4538    N        0.89450    0.10765    0.70204    1.000
    Si4539   Si       0.87023    0.07778    0.72284    1.000
    Si4540   Si       0.98297    0.09616    0.69922    1.000
    Si4541   Si       0.92125    0.10778    0.73655    1.000
    N4542    N        0.98112    0.11176    0.65883    1.000
    N4543    N        0.79623    0.09652    0.79308    1.000
    N4544    N        0.79666    0.07720    0.85526    1.000
    Si4545   Si       0.81644    0.11523    0.86364    1.000
    N4546    N        0.85059    0.11820    0.83596    1.000
    Si4547   Si       0.80203    0.09607    0.74865    1.000
    N4548    N        0.84384    0.10277    0.74564    1.000
    N4549    N        0.91706    0.09367    0.81613    1.000
    Si4550   Si       0.87863    0.08485    0.83674    1.000
    N4551    N        0.88292    0.10229    0.95085    1.000
    Si4552   Si       0.95129    0.06857    0.81781    1.000
    N4553    N        0.82241    0.10710    0.97220    1.000
    Si4554   Si       0.77936    0.10143    0.96730    1.000
    Si4555   Si       0.85250    0.07686    0.96942    1.000
    Si4556   Si       0.96464    0.12322    0.91665    1.000
    N4557    N        0.88975    0.08655    0.87956    1.000
    N4558    N        0.95042    0.08245    0.91950    1.000
    Si4559   Si       0.87606    0.11468    0.91000    1.000
    N4560    N        0.74066    0.08794    0.90508    1.000
    N4561    N        0.90681    0.06870    0.74835    1.000
    N4562    N        0.84352    0.14266    0.02798    1.000
    Si4563   Si       0.80717    0.15632    0.04516    1.000
    N4564    N        0.77230    0.16270    0.02023    1.000
    N4565    N        0.79102    0.12624    0.07263    1.000
    N4566    N        0.83981    0.17310    0.12368    1.000
    N4567    N        0.89768    0.17306    0.05058    1.000
    Si4568   Si       0.88080    0.13374    0.04681    1.000
    N4569    N        0.98172    0.13968    0.04717    1.000
    N4570    N        0.97914    0.15182    0.11462    1.000
    N4571    N        0.90972    0.16867    0.11837    1.000
    Si4572   Si       0.87329    0.14539    0.11962    1.000
    Si4573   Si       0.97478    0.18243    0.03970    1.000
    Si4574   Si       0.82006    0.17936    0.16236    1.000
    N4575    N        0.80472    0.14307    0.17796    1.000
    Si4576   Si       0.74437    0.14258    0.23469    1.000
    Si4577   Si       0.76532    0.12903    0.16482    1.000
    N4578    N        0.82259    0.16006    0.24234    1.000
    Si4579   Si       0.91870    0.15064    0.15984    1.000
    Si4580   Si       0.93026    0.18342    0.22465    1.000
    N4581    N        0.96190    0.16062    0.24244    1.000
    N4582    N        0.93673    0.18535    0.18082    1.000
    N4583    N        0.89340    0.16607    0.22962    1.000
    N4584    N        0.87997    0.13003    0.15998    1.000
    Si4585   Si       0.80154    0.15242    0.28288    1.000
    Si4586   Si       0.83816    0.16727    0.34220    1.000
    Si4587   Si       0.76460    0.14285    0.35098    1.000
    N4588    N        0.80725    0.14287    0.36011    1.000
    N4589    N        0.76254    0.14011    0.30713    1.000
    N4590    N        0.76111    0.17757    0.25481    1.000
    N4591    N        0.74401    0.18114    0.35037    1.000
    Si4592   Si       0.95081    0.15652    0.40088    1.000
    Si4593   Si       0.98656    0.15795    0.34545    1.000
    N4594    N        0.87193    0.14248    0.32882    1.000
    Si4595   Si       0.91204    0.15881    0.32514    1.000
    Si4596   Si       0.96942    0.14234    0.27948    1.000
    N4597    N        0.94364    0.15420    0.35699    1.000
    N4598    N        0.93302    0.12981    0.29744    1.000
    N4599    N        0.96497    0.16611    0.44268    1.000
    N4600    N        0.84796    0.13300    0.41262    1.000
    N4601    N        0.76685    0.18039    0.49223    1.000
    N4602    N        0.78827    0.14110    0.43227    1.000
    Si4603   Si       0.76312    0.17315    0.44991    1.000
    N4604    N        0.84843    0.15252    0.48180    1.000
    Si4605   Si       0.82947    0.15663    0.44399    1.000
    Si4606   Si       0.97830    0.12587    0.45285    1.000
    N4607    N        0.90669    0.16316    0.41175    1.000
    Si4608   Si       0.77826    0.15582    0.56851    1.000
    N4609    N        0.78293    0.15170    0.61003    1.000
    N4610    N        0.85724    0.16774    0.54906    1.000
    N4611    N        0.80293    0.12871    0.54382    1.000
    Si4612   Si       0.73826    0.15372    0.51157    1.000
    Si4613   Si       0.84493    0.12446    0.55396    1.000
    Si4614   Si       0.99209    0.15193    0.64841    1.000
    N4615    N        0.93488    0.14376    0.59741    1.000
    N4616    N        0.97859    0.14038    0.53902    1.000
    Si4617   Si       0.97456    0.13415    0.58241    1.000
    N4618    N        0.79951    0.17206    0.67494    1.000
    N4619    N        0.85373    0.16284    0.71552    1.000
    N4620    N        0.78714    0.13088    0.72846    1.000
    Si4621   Si       0.80021    0.12815    0.68470    1.000
    N4622    N        0.88594    0.16584    0.65447    1.000
    Si4623   Si       0.77222    0.16989    0.74672    1.000
    Si4624   Si       0.87242    0.13847    0.68225    1.000
    N4625    N        0.95784    0.17539    0.65809    1.000
    Si4626   Si       0.92303    0.17129    0.63129    1.000
    N4627    N        0.78502    0.14351    0.85259    1.000
    N4628    N        0.84733    0.17193    0.78678    1.000
    N4629    N        0.76505    0.16847    0.78948    1.000
    Si4630   Si       0.85873    0.16103    0.82723    1.000
    Si4631   Si       0.77327    0.13011    0.81214    1.000
    Si4632   Si       0.85860    0.14397    0.75449    1.000
    N4633    N        0.90227    0.16366    0.82907    1.000
    N4634    N        0.96091    0.14675    0.79045    1.000
    Si4635   Si       0.92058    0.13584    0.80154    1.000
    N4636    N        0.90051    0.13549    0.76326    1.000
    Si4637   Si       0.97837    0.15455    0.74963    1.000
    Si4638   Si       0.92164    0.16565    0.86999    1.000
    Si4639   Si       0.76455    0.17414    0.87524    1.000
    Si4640   Si       0.83356    0.17359    0.89735    1.000
    N4641    N        0.76208    0.13717    0.94791    1.000
    Si4642   Si       0.78081    0.17495    0.94881    1.000
    Si4643   Si       0.84518    0.14442    0.98449    1.000
    N4644    N        0.83356    0.12945    0.90079    1.000
    N4645    N        0.81851    0.17592    0.96813    1.000
    N4646    N        0.94952    0.14116    0.95472    1.000
    Si4647   Si       0.91190    0.12571    0.97384    1.000
    Si4648   Si       0.95880    0.18291    0.96507    1.000
    N4649    N        0.89754    0.15318    0.90436    1.000
    N4650    N        0.88515    0.16368    0.97867    1.000
    N4651    N        0.96003    0.15148    0.88109    1.000
    Si4652   Si       0.89229    0.18095    0.93905    1.000
    N4653    N        0.81503    0.19460    0.06374    1.000
    Si4654   Si       0.81365    0.20569    0.10444    1.000
    N4655    N        0.82916    0.23177    0.00424    1.000
    Si4656   Si       0.80604    0.23621    0.04605    1.000
    N4657    N        0.78154    0.24140    0.08452    1.000
    Si4658   Si       0.74509    0.24638    0.05883    1.000
    Si4659   Si       0.98710    0.19362    0.10607    1.000
    Si4660   Si       0.90461    0.18785    0.01083    1.000
    N4661    N        0.95778    0.20361    0.07425    1.000
    N4662    N        0.89366    0.22977    0.01187    1.000
    N4663    N        0.90469    0.23521    0.09089    1.000
    Si4664   Si       0.91496    0.19424    0.08467    1.000
    N4665    N        0.94743    0.18376    0.00641    1.000
    N4666    N        0.84523    0.20439    0.18859    1.000
    Si4667   Si       0.75843    0.22163    0.16124    1.000
    N4668    N        0.77413    0.22825    0.20170    1.000
    N4669    N        0.78724    0.19823    0.14041    1.000
    Si4670   Si       0.84818    0.24265    0.17019    1.000
    Si4671   Si       0.76061    0.21846    0.24138    1.000
    N4672    N        0.83383    0.24294    0.12705    1.000
    Si4673   Si       0.85423    0.18581    0.22724    1.000
    N4674    N        0.98150    0.21866    0.14151    1.000
    N4675    N        0.92872    0.22429    0.23859    1.000
    Si4676   Si       0.98016    0.19746    0.17879    1.000
    Si4677   Si       0.74425    0.19356    0.00568    1.000
    N4678    N        0.76053    0.22526    0.31014    1.000
    Si4679   Si       0.82708    0.22180    0.28512    1.000
    Si4680   Si       0.76454    0.22049    0.35243    1.000
    Si4681   Si       0.84019    0.24086    0.35915    1.000
    N4682    N        0.79637    0.23830    0.25704    1.000
    N4683    N        0.86138    0.21647    0.25841    1.000
    N4684    N        0.85841    0.20075    0.36466    1.000
    Si4685   Si       0.74762    0.18296    0.29911    1.000
    Si4686   Si       0.90248    0.22580    0.27384    1.000
    N4687    N        0.91327    0.19753    0.30495    1.000
    N4688    N        0.79981    0.23068    0.37423    1.000
    N4689    N        0.83736    0.19520    0.42749    1.000
    N4690    N        0.76616    0.20544    0.42188    1.000
    Si4691   Si       0.80445    0.22264    0.41593    1.000
    N4692    N        0.90177    0.22920    0.40782    1.000
    Si4693   Si       0.87570    0.19611    0.40429    1.000
    Si4694   Si       0.98061    0.20207    0.45829    1.000
    N4695    N        0.94597    0.22731    0.46847    1.000
    N4696    N        0.81704    0.18455    0.30538    1.000
    Si4697   Si       0.83686    0.19893    0.57326    1.000
    Si4698   Si       0.78881    0.20887    0.51626    1.000
    N4699    N        0.79686    0.19509    0.55814    1.000
    N4700    N        0.83866    0.19453    0.61675    1.000
    N4701    N        0.82920    0.21512    0.50078    1.000
    N4702    N        0.84851    0.23921    0.57113    1.000
    Si4703   Si       0.86201    0.18611    0.50971    1.000
    N4704    N        0.90144    0.20567    0.51345    1.000
    Si4705   Si       0.93827    0.22706    0.51071    1.000
    N4706    N        0.97007    0.20795    0.53389    1.000
    N4707    N        0.96772    0.23842    0.59957    1.000
    N4708    N        0.91136    0.21265    0.62321    1.000
    Si4709   Si       0.82661    0.19330    0.70275    1.000
    N4710    N        0.80351    0.19820    0.73848    1.000
    N4711    N        0.85427    0.21993    0.68175    1.000
    N4712    N        0.76374    0.21242    0.63265    1.000
    N4713    N        0.97105    0.19117    0.72798    1.000
    Si4714   Si       0.87613    0.23880    0.71433    1.000
    Si4715   Si       0.98287    0.20002    0.68712    1.000
    Si4716   Si       0.87066    0.20948    0.64316    1.000
    N4717    N        0.98581    0.24043    0.67008    1.000
    Si4718   Si       0.79950    0.18415    0.63421    1.000
    Si4719   Si       0.82981    0.21086    0.77316    1.000
    N4720    N        0.75574    0.20903    0.85135    1.000
    Si4721   Si       0.84102    0.22838    0.83920    1.000
    N4722    N        0.81333    0.23309    0.80594    1.000
    Si4723   Si       0.74654    0.20428    0.80717    1.000
    N4724    N        0.84049    0.18780    0.85694    1.000
    N4725    N        0.86189    0.23237    0.75419    1.000
    N4726    N        0.92739    0.20440    0.94641    1.000
    N4727    N        0.92549    0.21073    0.78243    1.000
    N4728    N        0.93260    0.20850    0.85913    1.000
    Si4729   Si       0.91311    0.20386    0.82184    1.000
    N4730    N        0.87961    0.23285    0.81947    1.000
    N4731    N        0.85727    0.20314    0.92617    1.000
    N4732    N        0.75888    0.20882    0.96635    1.000
    Si4733   Si       0.83124    0.21566    0.96234    1.000
    N4734    N        0.96761    0.24258    0.90637    1.000
    Si4735   Si       0.89407    0.24375    0.78033    1.000
    Si4736   Si       0.95610    0.24255    0.86314    1.000
    N4737    N        0.79211    0.18369    0.90727    1.000
    Si4738   Si       0.95011    0.22191    0.74661    1.000
    N4739    N        0.83822    0.26536    0.05781    1.000
    Si4740   Si       0.76762    0.29354    0.00662    1.000
    N4741    N        0.77160    0.25528    0.02582    1.000
    Si4742   Si       0.85976    0.25616    0.02090    1.000
    Si4743   Si       0.79508    0.26490    0.11933    1.000
    N4744    N        0.94693    0.26595    0.03897    1.000
    N4745    N        0.95857    0.27836    0.10473    1.000
    Si4746   Si       0.91926    0.26583    0.00662    1.000
    N4747    N        0.88319    0.29121    0.00726    1.000
    Si4748   Si       0.87543    0.25531    0.11583    1.000
    Si4749   Si       0.94451    0.24719    0.07707    1.000
    N4750    N        0.87179    0.29714    0.10604    1.000
    N4751    N        0.88736    0.25663    0.15822    1.000
    Si4752   Si       0.80131    0.26105    0.21892    1.000
    N4753    N        0.76135    0.26267    0.14630    1.000
    N4754    N        0.83616    0.27315    0.19794    1.000
    Si4755   Si       0.86054    0.29948    0.22529    1.000
    N4756    N        0.77886    0.29778    0.22817    1.000
    N4757    N        0.96486    0.28711    0.24583    1.000
    N4758    N        0.90319    0.29307    0.21832    1.000
    N4759    N        0.95172    0.26847    0.18146    1.000
    Si4760   Si       0.95686    0.25156    0.21973    1.000
    Si4761   Si       0.97369    0.26295    0.14433    1.000
    Si4762   Si       0.91263    0.28446    0.17707    1.000
    N4763    N        0.83844    0.29200    0.26141    1.000
    N4764    N        0.76873    0.29480    0.29667    1.000
    N4765    N        0.83848    0.24978    0.31642    1.000
    Si4766   Si       0.85861    0.28161    0.29794    1.000
    N4767    N        0.92883    0.28511    0.41770    1.000
    N4768    N        0.88152    0.25666    0.46770    1.000
    Si4769   Si       0.92903    0.29135    0.30836    1.000
    N4770    N        0.92426    0.28382    0.35239    1.000
    Si4771   Si       0.96881    0.28131    0.35535    1.000
    N4772    N        0.89962    0.26521    0.28971    1.000
    N4773    N        0.97156    0.28575    0.31186    1.000
    Si4774   Si       0.90264    0.26540    0.38476    1.000
    N4775    N        0.86221    0.27438    0.37478    1.000
    Si4776   Si       0.83895    0.25090    0.47864    1.000
    Si4777   Si       0.77435    0.28107    0.45085    1.000
    N4778    N        0.80815    0.25242    0.44879    1.000
    Si4779   Si       0.91691    0.25010    0.44285    1.000
    Si4780   Si       0.87837    0.30031    0.48370    1.000
    N4781    N        0.77011    0.26876    0.59617    1.000
    Si4782   Si       0.75805    0.27321    0.55407    1.000
    N4783    N        0.76361    0.24238    0.52544    1.000
    N4784    N        0.83605    0.29170    0.49637    1.000
    Si4785   Si       0.86577    0.26979    0.59251    1.000
    N4786    N        0.94912    0.26546    0.52808    1.000
    N4787    N        0.90881    0.26963    0.58106    1.000
    Si4788   Si       0.92688    0.25106    0.61609    1.000
    Si4789   Si       0.92298    0.29520    0.54950    1.000
    Si4790   Si       0.98775    0.29029    0.51579    1.000
    Si4791   Si       0.97636    0.24387    0.55819    1.000
    N4792    N        0.80492    0.27108    0.66108    1.000
    Si4793   Si       0.84842    0.27326    0.66549    1.000
    Si4794   Si       0.77091    0.25578    0.63733    1.000
    N4795    N        0.74766    0.28232    0.73478    1.000
    N4796    N        0.87050    0.25551    0.63335    1.000
    N4797    N        0.92079    0.24493    0.72459    1.000
    Si4798   Si       0.91608    0.28884    0.73050    1.000
    Si4799   Si       0.97028    0.28119    0.67785    1.000
    N4800    N        0.94347    0.28413    0.64113    1.000
    N4801    N        0.87455    0.28003    0.70338    1.000
    N4802    N        0.77602    0.27874    0.84401    1.000
    Si4803   Si       0.78482    0.26475    0.80365    1.000
    Si4804   Si       0.81166    0.29445    0.86692    1.000
    Si4805   Si       0.75148    0.24874    0.86850    1.000
    N4806    N        0.83753    0.25814    0.87074    1.000
    N4807    N        0.79456    0.30283    0.78438    1.000
    N4808    N        0.92991    0.27742    0.85026    1.000
    N4809    N        0.91475    0.28073    0.77748    1.000
    N4810    N        0.97895    0.24874    0.76202    1.000
    Si4811   Si       0.93262    0.24547    0.93269    1.000
    Si4812   Si       0.91309    0.29381    0.88624    1.000
    N4813    N        0.82695    0.25511    0.94027    1.000
    N4814    N        0.75988    0.25226    0.91007    1.000
    Si4815   Si       0.79228    0.27633    0.92797    1.000
    N4816    N        0.76661    0.28158    0.96489    1.000
    Si4817   Si       0.85520    0.24714    0.90819    1.000
    Si4818   Si       0.74420    0.24587    0.95228    1.000
    N4819    N        0.93493    0.27235    0.96720    1.000
    N4820    N        0.89653    0.26126    0.91033    1.000
    Si4821   Si       0.93010    0.30099    0.81283    1.000
    N4822    N        0.74849    0.24270    0.78993    1.000
    N4823    N        0.79222    0.31897    0.02910    1.000
    N4824    N        0.84634    0.34744    0.06153    1.000
    Si4825   Si       0.81975    0.35025    0.02546    1.000
    N4826    N        0.80634    0.30582    0.10828    1.000
    Si4827   Si       0.83761    0.30343    0.07869    1.000
    N4828    N        0.74436    0.32540    0.12300    1.000
    Si4829   Si       0.95866    0.31898    0.08811    1.000
    N4830    N        0.91974    0.33798    0.08396    1.000
    N4831    N        0.98267    0.34676    0.11130    1.000
    N4832    N        0.98356    0.32027    0.05340    1.000
    Si4833   Si       0.89458    0.33098    0.11993    1.000
    Si4834   Si       0.78566    0.33413    0.13327    1.000
    N4835    N        0.78240    0.34567    0.17857    1.000
    Si4836   Si       0.75681    0.33049    0.20914    1.000
    N4837    N        0.85880    0.34053    0.21701    1.000
    N4838    N        0.74392    0.36136    0.24014    1.000
    Si4839   Si       0.92952    0.31622    0.24469    1.000
    N4840    N        0.90535    0.32486    0.16081    1.000
    N4841    N        0.93374    0.35295    0.22186    1.000
    Si4842   Si       0.89660    0.35165    0.19647    1.000
    N4843    N        0.90445    0.35605    0.01817    1.000
    Si4844   Si       0.76647    0.31779    0.33585    1.000
    N4845    N        0.80659    0.35047    0.26397    1.000
    N4846    N        0.80373    0.31173    0.35684    1.000
    Si4847   Si       0.84928    0.31335    0.35926    1.000
    Si4848   Si       0.79852    0.30649    0.26623    1.000
    N4849    N        0.86512    0.31833    0.32029    1.000
    N4850    N        0.92150    0.32807    0.28717    1.000
    Si4851   Si       0.89117    0.35211    0.30472    1.000
    Si4852   Si       0.76027    0.34905    0.43109    1.000
    N4853    N        0.78475    0.31476    0.42553    1.000
    Si4854   Si       0.80476    0.33480    0.39326    1.000
    N4855    N        0.84697    0.34300    0.39081    1.000
    N4856    N        0.87478    0.32624    0.44908    1.000
    N4857    N        0.92047    0.35557    0.40002    1.000
    N4858    N        0.97703    0.31796    0.37495    1.000
    Si4859   Si       0.87813    0.35696    0.41806    1.000
    Si4860   Si       0.94796    0.32321    0.40605    1.000
    N4861    N        0.97170    0.34057    0.43890    1.000
    N4862    N        0.76310    0.35721    0.31910    1.000
    N4863    N        0.76725    0.30302    0.48718    1.000
    Si4864   Si       0.80221    0.31544    0.51053    1.000
    N4865    N        0.84467    0.30553    0.59484    1.000
    N4866    N        0.79299    0.30255    0.55022    1.000
    N4867    N        0.80327    0.35862    0.51002    1.000
    Si4868   Si       0.80083    0.30172    0.59268    1.000
    N4869    N        0.97829    0.33225    0.51822    1.000
    N4870    N        0.90097    0.31437    0.51669    1.000
    N4871    N        0.95116    0.31790    0.57413    1.000
    Si4872   Si       0.96294    0.35460    0.55309    1.000
    Si4873   Si       0.93951    0.32100    0.61695    1.000
    Si4874   Si       0.90366    0.35668    0.50483    1.000
    N4875    N        0.90088    0.34043    0.61674    1.000
    N4876    N        0.79050    0.33100    0.62318    1.000
    Si4877   Si       0.85859    0.33603    0.62194    1.000
    Si4878   Si       0.86050    0.32162    0.70454    1.000
    N4879    N        0.81973    0.31803    0.72114    1.000
    Si4880   Si       0.80247    0.32160    0.66600    1.000
    N4881    N        0.84740    0.31891    0.66151    1.000
    N4882    N        0.76199    0.32137    0.68598    1.000
    Si4883   Si       0.78123    0.31066    0.74203    1.000
    N4884    N        0.77143    0.35500    0.74155    1.000
    N4885    N        0.89332    0.32778    0.73602    1.000
    N4886    N        0.96359    0.34948    0.64527    1.000
    Si4887   Si       0.96519    0.34240    0.68823    1.000
    N4888    N        0.94767    0.30531    0.70502    1.000
    N4889    N        0.83339    0.32154    0.84119    1.000
    Si4890   Si       0.81375    0.33462    0.80411    1.000
    N4891    N        0.74047    0.34682    0.85569    1.000
    Si4892   Si       0.87096    0.34308    0.84540    1.000
    Si4893   Si       0.88599    0.34452    0.77574    1.000
    N4894    N        0.89997    0.33227    0.81498    1.000
    N4895    N        0.97112    0.34886    0.86405    1.000
    N4896    N        0.97405    0.30316    0.80919    1.000
    Si4897   Si       0.93732    0.31477    0.95458    1.000
    Si4898   Si       0.77961    0.35098    0.91342    1.000
    N4899    N        0.79836    0.31281    0.90520    1.000
    N4900    N        0.84260    0.34914    0.98977    1.000
    Si4901   Si       0.98451    0.32413    0.89796    1.000
    N4902    N        0.89778    0.33340    0.95016    1.000
    N4903    N        0.94623    0.30908    0.91144    1.000
    Si4904   Si       0.88128    0.33097    0.99210    1.000
    N4905    N        0.88873    0.32758    0.88175    1.000
    N4906    N        0.95696    0.35066    0.97216    1.000
    Si4907   Si       0.89718    0.35806    0.91451    1.000
    N4908    N        0.79993    0.39107    0.02257    1.000
    Si4909   Si       0.83270    0.37181    0.09742    1.000
    N4910    N        0.83491    0.41654    0.08575    1.000
    N4911    N        0.96376    0.39527    0.02512    1.000
    N4912    N        0.90381    0.40612    0.06535    1.000
    Si4913   Si       0.97186    0.39014    0.11268    1.000
    Si4914   Si       0.89239    0.36191    0.05999    1.000
    Si4915   Si       0.93553    0.37959    0.99625    1.000
    N4916    N        0.87144    0.36777    0.11505    1.000
    N4917    N        0.88368    0.38886    0.17818    1.000
    N4918    N        0.79973    0.37418    0.12541    1.000
    N4919    N        0.83031    0.40614    0.22623    1.000
    Si4920   Si       0.79220    0.38911    0.16846    1.000
    N4921    N        0.76807    0.40975    0.20210    1.000
    Si4922   Si       0.83937    0.36789    0.24526    1.000
    Si4923   Si       0.97064    0.37508    0.23355    1.000
    Si4924   Si       0.89507    0.39686    0.13745    1.000
    N4925    N        0.93646    0.39184    0.13726    1.000
    N4926    N        0.97253    0.41651    0.20958    1.000
    N4927    N        0.82119    0.42248    0.16361    1.000
    Si4928   Si       0.95892    0.41502    0.16818    1.000
    Si4929   Si       0.77098    0.37178    0.27651    1.000
    N4930    N        0.77647    0.41471    0.27181    1.000
    Si4931   Si       0.75601    0.38289    0.35600    1.000
    Si4932   Si       0.99419    0.40537    0.38735    1.000
    Si4933   Si       0.88637    0.40954    0.46915    1.000
    Si4934   Si       0.98527    0.39897    0.31412    1.000
    N4935    N        0.87152    0.37957    0.27257    1.000
    N4936    N        0.96488    0.39888    0.35262    1.000
    N4937    N        0.89779    0.37864    0.33790    1.000
    N4938    N        0.96584    0.39863    0.27280    1.000
    Si4939   Si       0.87710    0.41676    0.34603    1.000
    Si4940   Si       0.92769    0.38679    0.37042    1.000
    N4941    N        0.76833    0.38226    0.45691    1.000
    N4942    N        0.77500    0.36828    0.39199    1.000
    N4943    N        0.86734    0.39784    0.43241    1.000
    N4944    N        0.97981    0.39460    0.48550    1.000
    N4945    N        0.96686    0.40915    0.42155    1.000
    N4946    N        0.91798    0.37559    0.46797    1.000
    Si4947   Si       0.95753    0.37844    0.45030    1.000
    Si4948   Si       0.83011    0.39013    0.52137    1.000
    Si4949   Si       0.82280    0.40355    0.60258    1.000
    N4950    N        0.78124    0.39950    0.59526    1.000
    N4951    N        0.84009    0.40334    0.56282    1.000
    N4952    N        0.75383    0.40438    0.52772    1.000
    Si4953   Si       0.74601    0.40492    0.56872    1.000
    Si4954   Si       0.76286    0.36352    0.61581    1.000
    Si4955   Si       0.76203    0.37354    0.49888    1.000
    N4956    N        0.86861    0.38360    0.50291    1.000
    N4957    N        0.92691    0.37461    0.53547    1.000
    N4958    N        0.94863    0.38160    0.59303    1.000
    Si4959   Si       0.93351    0.40861    0.56195    1.000
    Si4960   Si       0.90559    0.38344    0.61151    1.000
    Si4961   Si       0.98577    0.37565    0.61702    1.000
    N4962    N        0.75856    0.41035    0.70600    1.000
    Si4963   Si       0.81457    0.36417    0.72394    1.000
    N4964    N        0.80136    0.36844    0.68108    1.000
    N4965    N        0.84657    0.37851    0.62909    1.000
    Si4966   Si       0.83945    0.38777    0.67035    1.000
    N4967    N        0.74601    0.38188    0.65076    1.000
    Si4968   Si       0.75520    0.36619    0.69296    1.000
    N4969    N        0.85967    0.36979    0.70502    1.000
    N4970    N        0.93311    0.37016    0.69916    1.000
    Si4971   Si       0.89861    0.37532    0.72334    1.000
    Si4972   Si       0.93252    0.41078    0.68286    1.000
    N4973    N        0.91255    0.40984    0.64637    1.000
    N4974    N        0.89881    0.42202    0.58674    1.000
    Si4975   Si       0.83150    0.40138    0.78812    1.000
    Si4976   Si       0.76953    0.37982    0.84860    1.000
    Si4977   Si       0.76393    0.37746    0.77636    1.000
    N4978    N        0.85898    0.38574    0.85312    1.000
    N4979    N        0.78742    0.36814    0.81027    1.000
    N4980    N        0.81464    0.40245    0.74732    1.000
    N4981    N        0.92333    0.40485    0.83937    1.000
    Si4982   Si       0.93449    0.39974    0.79689    1.000
    N4983    N        0.90575    0.38269    0.76678    1.000
    N4984    N        0.97297    0.38503    0.78326    1.000
    Si4985   Si       0.95264    0.38901    0.86807    1.000
    Si4986   Si       0.88264    0.41799    0.83792    1.000
    N4987    N        0.79501    0.36939    0.95150    1.000
    Si4988   Si       0.77598    0.38989    0.98568    1.000
    Si4989   Si       0.83302    0.39329    0.88706    1.000
    Si4990   Si       0.83751    0.37823    0.95737    1.000
    N4991    N        0.79535    0.37637    0.88219    1.000
    N4992    N        0.85807    0.37894    0.91980    1.000
    N4993    N        0.84607    0.41653    0.97423    1.000
    N4994    N        0.92015    0.41146    0.97033    1.000
    N4995    N        0.93089    0.38237    0.90653    1.000
    Si4996   Si       0.94666    0.41025    0.93466    1.000
    N4997    N        0.98712    0.41681    0.86828    1.000
    N4998    N        0.84602    0.35848    0.78559    1.000
    N4999    N        0.80631    0.45578    0.02900    1.000
    N5000    N        0.76653    0.42333    0.07563    1.000
    Si5001   Si       0.80281    0.42218    0.05435    1.000
    N5002    N        0.93513    0.45791    0.02643    1.000
    Si5003   Si       0.87660    0.43352    0.08450    1.000
    Si5004   Si       0.94335    0.42314    0.05271    1.000
    N5005    N        0.87100    0.46901    0.00432    1.000
    N5006    N        0.97272    0.42236    0.08527    1.000
    N5007    N        0.87973    0.47456    0.07409    1.000
    Si5008   Si       0.83292    0.44046    0.12663    1.000
    N5009    N        0.77901    0.47102    0.23578    1.000
    Si5010   Si       0.79430    0.42883    0.23362    1.000
    N5011    N        0.93884    0.45361    0.16036    1.000
    Si5012   Si       0.85519    0.41949    0.19152    1.000
    Si5013   Si       0.88771    0.47045    0.23042    1.000
    N5014    N        0.87437    0.45956    0.19129    1.000
    N5015    N        0.87797    0.43523    0.12766    1.000
    Si5016   Si       0.89792    0.46522    0.15284    1.000
    N5017    N        0.91119    0.43675    0.24606    1.000
    Si5018   Si       0.80725    0.44382    0.35013    1.000
    N5019    N        0.80755    0.46601    0.31218    1.000
    Si5020   Si       0.75145    0.42883    0.30511    1.000
    Si5021   Si       0.84687    0.47245    0.29643    1.000
    N5022    N        0.85370    0.45986    0.25607    1.000
    N5023    N        0.77047    0.42181    0.34263    1.000
    N5024    N        0.74331    0.47091    0.29756    1.000
    N5025    N        0.87222    0.43923    0.31027    1.000
    N5026    N        0.97025    0.47014    0.26248    1.000
    Si5027   Si       0.95437    0.43302    0.24630    1.000
    Si5028   Si       0.87683    0.42245    0.27051    1.000
    N5029    N        0.83889    0.42204    0.36807    1.000
    N5030    N        0.90846    0.42875    0.37274    1.000
    Si5031   Si       0.84052    0.42814    0.41259    1.000
    N5032    N        0.79854    0.43754    0.42457    1.000
    N5033    N        0.74703    0.44595    0.47106    1.000
    N5034    N        0.86053    0.46823    0.41657    1.000
    Si5035   Si       0.76099    0.41946    0.43865    1.000
    Si5036   Si       0.89282    0.47133    0.44894    1.000
    Si5037   Si       0.95405    0.45006    0.43234    1.000
    N5038    N        0.97694    0.46565    0.49315    1.000
    N5039    N        0.86825    0.44937    0.47822    1.000
    N5040    N        0.98729    0.48043    0.42983    1.000
    Si5041   Si       0.92019    0.47085    0.37517    1.000
    N5042    N        0.92658    0.43855    0.46270    1.000
    N5043    N        0.83468    0.44374    0.61362    1.000
    Si5044   Si       0.76972    0.43932    0.50750    1.000
    Si5045   Si       0.84049    0.46125    0.50767    1.000
    N5046    N        0.81103    0.42822    0.50539    1.000
    N5047    N        0.76518    0.47352    0.53313    1.000
    N5048    N        0.85749    0.46904    0.54623    1.000
    Si5049   Si       0.86156    0.44386    0.57964    1.000
    N5050    N        0.95288    0.43583    0.53909    1.000
    Si5051   Si       0.98364    0.46559    0.53834    1.000
    N5052    N        0.95297    0.46955    0.61496    1.000
    Si5053   Si       0.95562    0.42791    0.49481    1.000
    N5054    N        0.90368    0.42230    0.71421    1.000
    Si5055   Si       0.81872    0.45995    0.65147    1.000
    N5056    N        0.77672    0.45976    0.66210    1.000
    N5057    N        0.83967    0.43164    0.67943    1.000
    Si5058   Si       0.78185    0.42898    0.73796    1.000
    Si5059   Si       0.75396    0.42397    0.66516    1.000
    N5060    N        0.88499    0.48145    0.60032    1.000
    N5061    N        0.86293    0.45921    0.73776    1.000
    Si5062   Si       0.98465    0.44820    0.63565    1.000
    Si5063   Si       0.91122    0.45091    0.62365    1.000
    Si5064   Si       0.87585    0.45009    0.69570    1.000
    N5065    N        0.89620    0.46927    0.66252    1.000
    N5066    N        0.97207    0.42551    0.67035    1.000
    Si5067   Si       0.83413    0.46284    0.82575    1.000
    Si5068   Si       0.76838    0.44036    0.81128    1.000
    N5069    N        0.81066    0.43240    0.80956    1.000
    N5070    N        0.76424    0.42656    0.85254    1.000
    N5071    N        0.75531    0.42254    0.77244    1.000
    N5072    N        0.87061    0.45891    0.85571    1.000
    N5073    N        0.92776    0.44035    0.77856    1.000
    Si5074   Si       0.89064    0.42929    0.75929    1.000
    Si5075   Si       0.95362    0.47353    0.79029    1.000
    N5076    N        0.86966    0.42319    0.79780    1.000
    Si5077   Si       0.78698    0.45459    0.88196    1.000
    Si5078   Si       0.85662    0.46387    0.89704    1.000
    Si5079   Si       0.76610    0.46872    0.95673    1.000
    Si5080   Si       0.81626    0.44269    0.98631    1.000
    N5081    N        0.77757    0.42923    0.97038    1.000
    N5082    N        0.82402    0.43582    0.89608    1.000
    N5083    N        0.88528    0.45602    0.93061    1.000
    Si5084   Si       0.92154    0.47927    0.92856    1.000
    Si5085   Si       0.88554    0.43983    0.97148    1.000
    N5086    N        0.95680    0.45105    0.92932    1.000
    N5087    N        0.81725    0.48057    0.96568    1.000
    N5088    N        0.79214    0.47035    0.74392    1.000
    N5089    N        0.81041    0.52275    0.02625    1.000
    N5090    N        0.76011    0.50664    0.05997    1.000
    Si5091   Si       0.77978    0.49038    0.02633    1.000
    Si5092   Si       0.83892    0.50176    0.99933    1.000
    Si5093   Si       0.86454    0.50117    0.10625    1.000
    N5094    N        0.82836    0.48254    0.12146    1.000
    N5095    N        0.90265    0.52462    0.03229    1.000
    N5096    N        0.96963    0.52066    0.00817    1.000
    N5097    N        0.95199    0.52921    0.16833    1.000
    Si5098   Si       0.89759    0.48208    0.03635    1.000
    N5099    N        0.81249    0.53865    0.16466    1.000
    N5100    N        0.75640    0.51174    0.15019    1.000
    N5101    N        0.83123    0.52284    0.23743    1.000
    Si5102   Si       0.79733    0.51223    0.13173    1.000
    Si5103   Si       0.79136    0.51184    0.24216    1.000
    N5104    N        0.89460    0.50407    0.13920    1.000
    N5105    N        0.91139    0.50508    0.24219    1.000
    Si5106   Si       0.96680    0.48706    0.16082    1.000
    N5107    N        0.97703    0.53633    0.07721    1.000
    Si5108   Si       0.90762    0.53768    0.16151    1.000
    Si5109   Si       0.95656    0.48072    0.99528    1.000
    Si5110   Si       0.77699    0.49599    0.31148    1.000
    N5111    N        0.78753    0.52827    0.28369    1.000
    N5112    N        0.85494    0.51360    0.30469    1.000
    N5113    N        0.74563    0.52428    0.33208    1.000
    N5114    N        0.93314    0.51254    0.30735    1.000
    Si5115   Si       0.96749    0.51450    0.33250    1.000
    Si5116   Si       0.89271    0.51883    0.32250    1.000
    Si5117   Si       0.94564    0.50517    0.26711    1.000
    N5118    N        0.88692    0.49428    0.35781    1.000
    N5119    N        0.96019    0.48439    0.36296    1.000
    Si5120   Si       0.74615    0.52775    0.37715    1.000
    N5121    N        0.80501    0.51469    0.43326    1.000
    Si5122   Si       0.85196    0.49596    0.38314    1.000
    Si5123   Si       0.81406    0.52766    0.47284    1.000
    N5124    N        0.75227    0.48899    0.39466    1.000
    N5125    N        0.81277    0.48101    0.37466    1.000
    Si5126   Si       0.79068    0.47948    0.41215    1.000
    Si5127   Si       0.92320    0.52448    0.43093    1.000
    N5128    N        0.89509    0.51300    0.46199    1.000
    N5129    N        0.95971    0.53355    0.45146    1.000
    Si5130   Si       0.98349    0.50041    0.46857    1.000
    N5131    N        0.92341    0.48133    0.41677    1.000
    Si5132   Si       0.78080    0.51315    0.52445    1.000
    Si5133   Si       0.75096    0.53286    0.58704    1.000
    N5134    N        0.81635    0.49610    0.50135    1.000
    N5135    N        0.78767    0.53331    0.56375    1.000
    Si5136   Si       0.87729    0.50442    0.56210    1.000
    Si5137   Si       0.96102    0.51088    0.59776    1.000
    N5138    N        0.89476    0.52924    0.52880    1.000
    N5139    N        0.98176    0.50484    0.55844    1.000
    N5140    N        0.92898    0.53707    0.58386    1.000
    N5141    N        0.97927    0.50544    0.69778    1.000
    N5142    N        0.75170    0.52071    0.63329    1.000
    N5143    N        0.83447    0.50068    0.65107    1.000
    Si5144   Si       0.75730    0.49990    0.66902    1.000
    N5145    N        0.78716    0.52674    0.68796    1.000
    N5146    N        0.84027    0.52142    0.73212    1.000
    Si5147   Si       0.95393    0.52868    0.72510    1.000
    N5148    N        0.98287    0.53534    0.62850    1.000
    Si5149   Si       0.87625    0.50030    0.63922    1.000
    N5150    N        0.85702    0.53875    0.58399    1.000
    N5151    N        0.89699    0.53713    0.64229    1.000
    Si5152   Si       0.76383    0.50195    0.83945    1.000
    N5153    N        0.83960    0.49432    0.79626    1.000
    Si5154   Si       0.75746    0.49707    0.76353    1.000
    Si5155   Si       0.83199    0.48463    0.75322    1.000
    Si5156   Si       0.85753    0.53286    0.80619    1.000
    N5157    N        0.77983    0.53500    0.76255    1.000
    N5158    N        0.75474    0.48126    0.80281    1.000
    N5159    N        0.80159    0.48093    0.85074    1.000
    N5160    N        0.93638    0.49732    0.82335    1.000
    N5161    N        0.95132    0.50542    0.76147    1.000
    Si5162   Si       0.95493    0.50695    0.86155    1.000
    Si5163   Si       0.89996    0.48954    0.84836    1.000
    N5164    N        0.87641    0.52724    0.84493    1.000
    Si5165   Si       0.93171    0.52953    0.79260    1.000
    N5166    N        0.89114    0.53375    0.77907    1.000
    N5167    N        0.77594    0.48285    0.91521    1.000
    Si5168   Si       0.81157    0.50411    0.92848    1.000
    N5169    N        0.84628    0.50743    0.90206    1.000
    N5170    N        0.86131    0.53227    0.97906    1.000
    N5171    N        0.75794    0.49336    0.99165    1.000
    Si5172   Si       0.90303    0.52793    0.98839    1.000
    N5173    N        0.92442    0.49516    0.96939    1.000
    N5174    N        0.92162    0.49322    0.88540    1.000
    N5175    N        0.76085    0.57366    0.04217    1.000
    Si5176   Si       0.83062    0.56967    0.09944    1.000
    N5177    N        0.79779    0.54079    0.10027    1.000
    N5178    N        0.81531    0.59073    0.06485    1.000
    Si5179   Si       0.78734    0.54301    0.05733    1.000
    N5180    N        0.87867    0.53802    0.19540    1.000
    N5181    N        0.86089    0.54135    0.08976    1.000
    N5182    N        0.94284    0.58084    0.03456    1.000
    N5183    N        0.91710    0.57484    0.09288    1.000
    Si5184   Si       0.89248    0.55503    0.06113    1.000
    Si5185   Si       0.95662    0.57373    0.07498    1.000
    N5186    N        0.87840    0.58894    0.04050    1.000
    Si5187   Si       0.89737    0.54548    0.23374    1.000
    Si5188   Si       0.76931    0.54677    0.17251    1.000
    N5189    N        0.83230    0.58776    0.21131    1.000
    N5190    N        0.74953    0.58125    0.15499    1.000
    Si5191   Si       0.83588    0.54505    0.19899    1.000
    N5192    N        0.77234    0.54133    0.21446    1.000
    Si5193   Si       0.97992    0.56337    0.16707    1.000
    N5194    N        0.92591    0.57740    0.22497    1.000
    N5195    N        0.90583    0.57897    0.15558    1.000
    Si5196   Si       0.77336    0.59642    0.00653    1.000
    Si5197   Si       0.75914    0.55752    0.30338    1.000
    N5198    N        0.82180    0.58535    0.28732    1.000
    Si5199   Si       0.83599    0.54397    0.27753    1.000
    N5200    N        0.87487    0.56543    0.26505    1.000
    N5201    N        0.89808    0.56024    0.33811    1.000
    N5202    N        0.96597    0.55507    0.34825    1.000
    Si5203   Si       0.93403    0.58318    0.33292    1.000
    Si5204   Si       0.95774    0.58195    0.25466    1.000
    N5205    N        0.97372    0.53898    0.25625    1.000
    Si5206   Si       0.88482    0.54399    0.48907    1.000
    N5207    N        0.84522    0.55702    0.48135    1.000
    N5208    N        0.77433    0.55685    0.38376    1.000
    Si5209   Si       0.80908    0.55142    0.40667    1.000
    N5210    N        0.80900    0.58792    0.43477    1.000
    Si5211   Si       0.77538    0.58448    0.47090    1.000
    N5212    N        0.84545    0.54048    0.38596    1.000
    N5213    N        0.77709    0.54567    0.49136    1.000
    N5214    N        0.98531    0.59101    0.40523    1.000
    N5215    N        0.90768    0.55899    0.41029    1.000
    Si5216   Si       0.88004    0.56441    0.37755    1.000
    N5217    N        0.91049    0.58072    0.47618    1.000
    Si5218   Si       0.95494    0.56990    0.47558    1.000
    N5219    N        0.76627    0.59572    0.32419    1.000
    Si5220   Si       0.76954    0.59686    0.36888    1.000
    Si5221   Si       0.81854    0.55778    0.58225    1.000
    N5222    N        0.73464    0.56994    0.59788    1.000
    Si5223   Si       0.89303    0.55592    0.60300    1.000
    Si5224   Si       0.92789    0.54988    0.54340    1.000
    N5225    N        0.96172    0.55353    0.51682    1.000
    N5226    N        0.91773    0.59111    0.54608    1.000
    N5227    N        0.80676    0.56340    0.62544    1.000
    Si5228   Si       0.81780    0.54035    0.65898    1.000
    N5229    N        0.79870    0.58693    0.72451    1.000
    N5230    N        0.85012    0.56494    0.67985    1.000
    Si5231   Si       0.80237    0.54287    0.72598    1.000
    Si5232   Si       0.83750    0.59455    0.70918    1.000
    Si5233   Si       0.98872    0.57695    0.63081    1.000
    N5234    N        0.86598    0.58353    0.74012    1.000
    N5235    N        0.97755    0.56261    0.73927    1.000
    N5236    N        0.91273    0.53880    0.71160    1.000
    Si5237   Si       0.89432    0.56208    0.67762    1.000
    Si5238   Si       0.87820    0.54083    0.73603    1.000
    N5239    N        0.82853    0.56275    0.80688    1.000
    Si5240   Si       0.78679    0.56099    0.79735    1.000
    Si5241   Si       0.74716    0.56731    0.86149    1.000
    N5242    N        0.76984    0.54224    0.83296    1.000
    Si5243   Si       0.84000    0.59531    0.83247    1.000
    N5244    N        0.95074    0.56709    0.80055    1.000
    N5245    N        0.96310    0.54992    0.86289    1.000
    Si5246   Si       0.98381    0.56823    0.82918    1.000
    Si5247   Si       0.96006    0.59320    0.76698    1.000
    N5248    N        0.84463    0.58291    0.87503    1.000
    N5249    N        0.75016    0.54980    0.90201    1.000
    Si5250   Si       0.77228    0.57499    0.93346    1.000
    N5251    N        0.80331    0.54602    0.94270    1.000
    Si5252   Si       0.83427    0.56265    0.96800    1.000
    N5253    N        0.75197    0.58751    0.97088    1.000
    N5254    N        0.85681    0.59058    0.94441    1.000
    Si5255   Si       0.89863    0.58396    0.94266    1.000
    Si5256   Si       0.86774    0.54397    0.88464    1.000
    N5257    N        0.90352    0.55881    0.90556    1.000
    N5258    N        0.92089    0.56331    0.97227    1.000
    Si5259   Si       0.93915    0.57579    0.88602    1.000
    N5260    N        0.96516    0.59474    0.91539    1.000
    Si5261   Si       0.95782    0.56013    0.99806    1.000
    N5262    N        0.81500    0.58842    0.99515    1.000
    Si5263   Si       0.77581    0.61080    0.06868    1.000
    N5264    N        0.77708    0.63345    0.03020    1.000
    N5265    N        0.78881    0.63650    0.10524    1.000
    N5266    N        0.84121    0.64507    0.02437    1.000
    Si5267   Si       0.83807    0.60266    0.02995    1.000
    N5268    N        0.90973    0.64102    0.12838    1.000
    N5269    N        0.85093    0.60243    0.12062    1.000
    N5270    N        0.90651    0.64255    0.00908    1.000
    Si5271   Si       0.91389    0.61499    0.03896    1.000
    N5272    N        0.93715    0.64240    0.06577    1.000
    Si5273   Si       0.89593    0.60096    0.12065    1.000
    Si5274   Si       0.82634    0.63488    0.13340    1.000
    Si5275   Si       0.76447    0.61991    0.14209    1.000
    N5276    N        0.75745    0.60613    0.21940    1.000
    N5277    N        0.79793    0.62994    0.16662    1.000
    Si5278   Si       0.79823    0.61657    0.20786    1.000
    N5279    N        0.81646    0.64083    0.23922    1.000
    N5280    N        0.89906    0.63827    0.19662    1.000
    Si5281   Si       0.92242    0.60295    0.18656    1.000
    N5282    N        0.96616    0.60136    0.17909    1.000
    N5283    N        0.97312    0.64309    0.00116    1.000
    Si5284   Si       0.80688    0.61002    0.32250    1.000
    N5285    N        0.75584    0.64207    0.27518    1.000
    N5286    N        0.81534    0.64975    0.30745    1.000
    N5287    N        0.81012    0.61469    0.36733    1.000
    Si5288   Si       0.74544    0.63604    0.31491    1.000
    Si5289   Si       0.85808    0.65098    0.29749    1.000
    Si5290   Si       0.84058    0.60445    0.25142    1.000
    N5291    N        0.73755    0.60286    0.45533    1.000
    N5292    N        0.87635    0.62169    0.32334    1.000
    N5293    N        0.87608    0.63035    0.26204    1.000
    Si5294   Si       0.89176    0.63134    0.36256    1.000
    Si5295   Si       0.94925    0.64417    0.28794    1.000
    N5296    N        0.93247    0.61429    0.36075    1.000
    N5297    N        0.93799    0.60202    0.29143    1.000
    Si5298   Si       0.83148    0.61740    0.40579    1.000
    Si5299   Si       0.83898    0.59874    0.47728    1.000
    N5300    N        0.86501    0.61870    0.44985    1.000
    N5301    N        0.80138    0.60794    0.49847    1.000
    N5302    N        0.92957    0.62739    0.42887    1.000
    Si5303   Si       0.95742    0.62312    0.39405    1.000
    N5304    N        0.87071    0.60480    0.39001    1.000
    Si5305   Si       0.89195    0.59783    0.28964    1.000
    Si5306   Si       0.90006    0.59705    0.43279    1.000
    N5307    N        0.76325    0.63070    0.59777    1.000
    Si5308   Si       0.82242    0.62046    0.53333    1.000
    Si5309   Si       0.85217    0.61881    0.59916    1.000
    N5310    N        0.86104    0.61609    0.51372    1.000
    N5311    N        0.82334    0.59856    0.57245    1.000
    N5312    N        0.98225    0.62186    0.55162    1.000
    Si5313   Si       0.94361    0.61646    0.56925    1.000
    Si5314   Si       0.90332    0.60959    0.50927    1.000
    N5315    N        0.95987    0.60612    0.61200    1.000
    N5316    N        0.88757    0.59660    0.61347    1.000
    N5317    N        0.92704    0.64611    0.50049    1.000
    Si5318   Si       0.78817    0.60476    0.62838    1.000
    Si5319   Si       0.81763    0.65210    0.66816    1.000
    N5320    N        0.83734    0.63796    0.70395    1.000
    N5321    N        0.82414    0.62656    0.63317    1.000
    N5322    N        0.75705    0.65140    0.73795    1.000
    Si5323   Si       0.74179    0.64797    0.63952    1.000
    N5324    N        0.75450    0.60056    0.65415    1.000
    Si5325   Si       0.92664    0.62677    0.70852    1.000
    N5326    N        0.91426    0.59875    0.67575    1.000
    N5327    N        0.96480    0.64695    0.70163    1.000
    Si5328   Si       0.92089    0.61469    0.63541    1.000
    Si5329   Si       0.77587    0.62749    0.82064    1.000
    N5330    N        0.81902    0.63276    0.82269    1.000
    N5331    N        0.75831    0.60918    0.85720    1.000
    N5332    N        0.76872    0.59953    0.78585    1.000
    N5333    N        0.86635    0.64862    0.76982    1.000
    Si5334   Si       0.88595    0.60844    0.77006    1.000
    N5335    N        0.94273    0.63695    0.81140    1.000
    Si5336   Si       0.90792    0.62702    0.83398    1.000
    N5337    N        0.87905    0.60084    0.81333    1.000
    Si5338   Si       0.98441    0.63564    0.81936    1.000
    N5339    N        0.92400    0.60994    0.74979    1.000
    N5340    N        0.92093    0.61357    0.87239    1.000
    Si5341   Si       0.83571    0.60674    0.90837    1.000
    Si5342   Si       0.76407    0.63608    0.89272    1.000
    N5343    N        0.79175    0.60812    0.91311    1.000
    N5344    N        0.85458    0.64725    0.90580    1.000
    Si5345   Si       0.93683    0.64221    0.97810    1.000
    Si5346   Si       0.94446    0.63124    0.90580    1.000
    N5347    N        0.91700    0.62538    0.94149    1.000
    Si5348   Si       0.76675    0.60904    0.74288    1.000
    N5349    N        0.80653    0.69207    0.06547    1.000
    Si5350   Si       0.80398    0.66874    0.02857    1.000
    Si5351   Si       0.78043    0.68028    0.09895    1.000
    N5352    N        0.80834    0.69768    0.99703    1.000
    Si5353   Si       0.87303    0.66966    0.01005    1.000
    N5354    N        0.87513    0.70526    0.03581    1.000
    Si5355   Si       0.93355    0.66679    0.10226    1.000
    N5356    N        0.94919    0.70410    0.03141    1.000
    N5357    N        0.91613    0.70726    0.10442    1.000
    Si5358   Si       0.96313    0.66352    0.03856    1.000
    N5359    N        0.97187    0.66063    0.12146    1.000
    Si5360   Si       0.83656    0.70880    0.13548    1.000
    N5361    N        0.85057    0.66927    0.14328    1.000
    N5362    N        0.76277    0.67711    0.22578    1.000
    N5363    N        0.79286    0.70636    0.13044    1.000
    Si5364   Si       0.96589    0.68781    0.23126    1.000
    N5365    N        0.87318    0.69708    0.23447    1.000
    N5366    N        0.97797    0.66495    0.19512    1.000
    Si5367   Si       0.89036    0.66145    0.15986    1.000
    N5368    N        0.90102    0.70164    0.16961    1.000
    Si5369   Si       0.98597    0.68242    0.15476    1.000
    Si5370   Si       0.89463    0.65808    0.23491    1.000
    N5371    N        0.73887    0.68193    0.09239    1.000
    Si5372   Si       0.79518    0.68667    0.32275    1.000
    Si5373   Si       0.78958    0.66753    0.26060    1.000
    N5374    N        0.75705    0.66949    0.33851    1.000
    N5375    N        0.78994    0.70630    0.28198    1.000
    N5376    N        0.82010    0.70702    0.35196    1.000
    N5377    N        0.87268    0.68978    0.30225    1.000
    Si5378   Si       0.90217    0.69364    0.33362    1.000
    N5379    N        0.93718    0.67079    0.32124    1.000
    Si5380   Si       0.97864    0.67109    0.33946    1.000
    N5381    N        0.93700    0.66313    0.25112    1.000
    N5382    N        0.88318    0.67386    0.36788    1.000
    N5383    N        0.75998    0.66638    0.41061    1.000
    Si5384   Si       0.84639    0.69080    0.38324    1.000
    Si5385   Si       0.79530    0.67869    0.43796    1.000
    N5386    N        0.76469    0.67100    0.47328    1.000
    N5387    N        0.82806    0.67496    0.47568    1.000
    N5388    N        0.82859    0.66235    0.41405    1.000
    Si5389   Si       0.86023    0.66254    0.45046    1.000
    N5390    N        0.89684    0.68512    0.45787    1.000
    N5391    N        0.97927    0.66089    0.38074    1.000
    Si5392   Si       0.93186    0.65949    0.45783    1.000
    N5393    N        0.96738    0.68438    0.44647    1.000
    Si5394   Si       0.73803    0.68336    0.37430    1.000
    N5395    N        0.79922    0.69084    0.59964    1.000
    Si5396   Si       0.83103    0.68391    0.57233    1.000
    Si5397   Si       0.77380    0.66521    0.57484    1.000
    Si5398   Si       0.79491    0.67612    0.50441    1.000
    N5399    N        0.80475    0.65962    0.54381    1.000
    N5400    N        0.74145    0.69120    0.55988    1.000
    N5401    N        0.86190    0.65798    0.58429    1.000
    N5402    N        0.91073    0.71093    0.52390    1.000
    Si5403   Si       0.93644    0.67760    0.52973    1.000
    Si5404   Si       0.90043    0.67261    0.59924    1.000
    N5405    N        0.97906    0.68721    0.52698    1.000
    N5406    N        0.92870    0.66008    0.56907    1.000
    N5407    N        0.74026    0.69183    0.62837    1.000
    Si5408   Si       0.74756    0.66874    0.70022    1.000
    N5409    N        0.85242    0.70393    0.72927    1.000
    Si5410   Si       0.78297    0.69900    0.63985    1.000
    N5411    N        0.82524    0.69423    0.66088    1.000
    N5412    N        0.77402    0.65961    0.66737    1.000
    Si5413   Si       0.86383    0.66267    0.72886    1.000
    N5414    N        0.74447    0.71262    0.70540    1.000
    N5415    N        0.90108    0.66234    0.70470    1.000
    Si5416   Si       0.96981    0.68992    0.70510    1.000
    N5417    N        0.95922    0.71574    0.73903    1.000
    N5418    N        0.94658    0.70938    0.67485    1.000
    Si5419   Si       0.91200    0.68417    0.67052    1.000
    N5420    N        0.91285    0.65811    0.63783    1.000
    Si5421   Si       0.74966    0.68872    0.84033    1.000
    N5422    N        0.84400    0.70584    0.80423    1.000
    N5423    N        0.75474    0.66158    0.80780    1.000
    Si5424   Si       0.84902    0.66269    0.80930    1.000
    N5425    N        0.88015    0.66027    0.84127    1.000
    N5426    N        0.77495    0.67514    0.87199    1.000
    N5427    N        0.83990    0.70851    0.87421    1.000
    N5428    N        0.79306    0.68894    0.93317    1.000
    Si5429   Si       0.75082    0.68834    0.94410    1.000
    Si5430   Si       0.82491    0.68032    0.96067    1.000
    Si5431   Si       0.80090    0.70336    0.89307    1.000
    N5432    N        0.93954    0.68327    0.96069    1.000
    N5433    N        0.90559    0.68588    0.90586    1.000
    N5434    N        0.86691    0.67407    0.96690    1.000
    Si5435   Si       0.94577    0.70053    0.91725    1.000
    Si5436   Si       0.88744    0.65791    0.93371    1.000
    Si5437   Si       0.87219    0.67833    0.87875    1.000
    N5438    N        0.97109    0.66434    0.90182    1.000
    Si5439   Si       0.98864    0.68773    0.87036    1.000
    N5440    N        0.73858    0.67551    0.98457    1.000
    N5441    N        0.82267    0.75302    0.03386    1.000
    N5442    N        0.85073    0.73021    0.10037    1.000
    Si5443   Si       0.84039    0.72112    0.05846    1.000
    N5444    N        0.74193    0.74619    0.10491    1.000
    Si5445   Si       0.89506    0.74467    0.09452    1.000
    Si5446   Si       0.91194    0.72669    0.03481    1.000
    N5447    N        0.90047    0.76371    0.05679    1.000
    N5448    N        0.98043    0.75348    0.07323    1.000
    Si5449   Si       0.92397    0.75909    0.23922    1.000
    N5450    N        0.94962    0.72850    0.22354    1.000
    Si5451   Si       0.81316    0.75789    0.18866    1.000
    Si5452   Si       0.76439    0.73627    0.14260    1.000
    N5453    N        0.80144    0.73527    0.22243    1.000
    N5454    N        0.84294    0.73234    0.17190    1.000
    Si5455   Si       0.75973    0.71951    0.22058    1.000
    N5456    N        0.74484    0.72369    0.17819    1.000
    N5457    N        0.73810    0.74793    0.24743    1.000
    Si5458   Si       0.97093    0.74809    0.18868    1.000
    N5459    N        0.96628    0.72303    0.15359    1.000
    Si5460   Si       0.92570    0.72526    0.14222    1.000
    N5461    N        0.88815    0.75915    0.21646    1.000
    Si5462   Si       0.87622    0.72084    0.19768    1.000
    N5463    N        0.91174    0.76372    0.12961    1.000
    Si5464   Si       0.80190    0.74522    0.26389    1.000
    N5465    N        0.84073    0.74627    0.28898    1.000
    Si5466   Si       0.82509    0.74734    0.33120    1.000
    Si5467   Si       0.75699    0.76220    0.36379    1.000
    N5468    N        0.78403    0.76481    0.32882    1.000
    N5469    N        0.84893    0.77284    0.35517    1.000
    N5470    N        0.90240    0.73652    0.34529    1.000
    N5471    N        0.91024    0.74268    0.27757    1.000
    Si5472   Si       0.91904    0.76282    0.31491    1.000
    Si5473   Si       0.87303    0.72058    0.27203    1.000
    N5474    N        0.96027    0.77111    0.32461    1.000
    N5475    N        0.79888    0.72166    0.43638    1.000
    Si5476   Si       0.83854    0.74012    0.43925    1.000
    Si5477   Si       0.76416    0.74575    0.43563    1.000
    N5478    N        0.85559    0.73920    0.48056    1.000
    N5479    N        0.86030    0.72652    0.40343    1.000
    Si5480   Si       0.96679    0.72744    0.44987    1.000
    Si5481   Si       0.88219    0.75422    0.37916    1.000
    N5482    N        0.96950    0.75485    0.41571    1.000
    N5483    N        0.93364    0.74397    0.47126    1.000
    Si5484   Si       0.89670    0.71996    0.48385    1.000
    N5485    N        0.73277    0.72696    0.37613    1.000
    Si5486   Si       0.82515    0.73564    0.51443    1.000
    N5487    N        0.84553    0.71709    0.54744    1.000
    Si5488   Si       0.74362    0.71364    0.52250    1.000
    N5489    N        0.84946    0.76201    0.61944    1.000
    N5490    N        0.78587    0.71860    0.51127    1.000
    Si5491   Si       0.88476    0.72976    0.55474    1.000
    Si5492   Si       0.75594    0.75116    0.68846    1.000
    N5493    N        0.77939    0.74416    0.65007    1.000
    N5494    N        0.83044    0.75664    0.69052    1.000
    Si5495   Si       0.81844    0.76553    0.64973    1.000
    Si5496   Si       0.74413    0.75967    0.62740    1.000
    Si5497   Si       0.84934    0.71830    0.68820    1.000
    Si5498   Si       0.93981    0.75193    0.67397    1.000
    Si5499   Si       0.88522    0.74205    0.62815    1.000
    N5500    N        0.91921    0.76770    0.63983    1.000
    N5501    N        0.88515    0.71974    0.66430    1.000
    N5502    N        0.98037    0.76605    0.67203    1.000
    N5503    N        0.92348    0.76808    0.71001    1.000
    N5504    N        0.89526    0.71472    0.59405    1.000
    Si5505   Si       0.85090    0.73230    0.83741    1.000
    Si5506   Si       0.78289    0.75839    0.85206    1.000
    N5507    N        0.75597    0.73138    0.83114    1.000
    Si5508   Si       0.85352    0.72655    0.76482    1.000
    N5509    N        0.82709    0.76179    0.76031    1.000
    N5510    N        0.82156    0.76339    0.82943    1.000
    N5511    N        0.89384    0.73919    0.76947    1.000
    N5512    N        0.88990    0.75391    0.83516    1.000
    Si5513   Si       0.97805    0.76105    0.86556    1.000
    Si5514   Si       0.93072    0.74529    0.74668    1.000
    N5515    N        0.84820    0.76292    0.97508    1.000
    Si5516   Si       0.76527    0.75569    0.93110    1.000
    N5517    N        0.78414    0.74428    0.89340    1.000
    N5518    N        0.78707    0.76212    0.96855    1.000
    Si5519   Si       0.81394    0.73995    0.99342    1.000
    N5520    N        0.91518    0.74142    0.99484    1.000
    N5521    N        0.95645    0.73790    0.94048    1.000
    N5522    N        0.96399    0.72129    0.87874    1.000
    Si5523   Si       0.94972    0.71807    0.98486    1.000
    Si5524   Si       0.90039    0.77451    0.79617    1.000
    N5525    N        0.98518    0.74275    0.99788    1.000
    Si5526   Si       0.81318    0.79537    0.03942    1.000
    N5527    N        0.84748    0.81326    0.06224    1.000
    N5528    N        0.77606    0.79555    0.05999    1.000
    N5529    N        0.80831    0.81602    0.00178    1.000
    Si5530   Si       0.74014    0.78359    0.08057    1.000
    Si5531   Si       0.88856    0.80412    0.04604    1.000
    N5532    N        0.89395    0.80559    0.00303    1.000
    N5533    N        0.91635    0.83116    0.06394    1.000
    Si5534   Si       0.80238    0.81766    0.23558    1.000
    Si5535   Si       0.75410    0.80372    0.15429    1.000
    N5536    N        0.82652    0.79551    0.20571    1.000
    N5537    N        0.75834    0.82403    0.23124    1.000
    N5538    N        0.78500    0.77249    0.15663    1.000
    Si5539   Si       0.87069    0.79671    0.20535    1.000
    Si5540   Si       0.92200    0.79950    0.15067    1.000
    N5541    N        0.87815    0.82557    0.23838    1.000
    Si5542   Si       0.95465    0.81679    0.21357    1.000
    N5543    N        0.95060    0.78706    0.18464    1.000
    N5544    N        0.88274    0.81373    0.16624    1.000
    Si5545   Si       0.78602    0.80245    0.30771    1.000
    N5546    N        0.79571    0.78834    0.26723    1.000
    N5547    N        0.82317    0.82205    0.31598    1.000
    N5548    N        0.74550    0.81458    0.29435    1.000
    Si5549   Si       0.86044    0.80938    0.33620    1.000
    Si5550   Si       0.73875    0.79206    0.25651    1.000
    N5551    N        0.89367    0.80045    0.30854    1.000
    Si5552   Si       0.90591    0.82205    0.27053    1.000
    Si5553   Si       0.97895    0.80549    0.26988    1.000
    N5554    N        0.98133    0.82879    0.30808    1.000
    N5555    N        0.93738    0.79934    0.25191    1.000
    Si5556   Si       0.98274    0.80354    0.34259    1.000
    N5557    N        0.84193    0.78366    0.43854    1.000
    Si5558   Si       0.76863    0.80934    0.43049    1.000
    Si5559   Si       0.85113    0.78592    0.48296    1.000
    N5560    N        0.76056    0.78098    0.46441    1.000
    Si5561   Si       0.83998    0.82549    0.43530    1.000
    N5562    N        0.83299    0.82836    0.47857    1.000
    N5563    N        0.76976    0.77546    0.40255    1.000
    Si5564   Si       0.93322    0.78603    0.48047    1.000
    N5565    N        0.96852    0.81976    0.37970    1.000
    N5566    N        0.94980    0.81021    0.44914    1.000
    N5567    N        0.89098    0.79741    0.48934    1.000
    Si5568   Si       0.94748    0.79256    0.40844    1.000
    N5569    N        0.90855    0.78379    0.39470    1.000
    N5570    N        0.82146    0.81493    0.57998    1.000
    N5571    N        0.76520    0.80884    0.53169    1.000
    Si5572   Si       0.80777    0.81716    0.53919    1.000
    Si5573   Si       0.79433    0.82068    0.61330    1.000
    N5574    N        0.75573    0.79976    0.61335    1.000
    Si5575   Si       0.85854    0.79342    0.58861    1.000
    N5576    N        0.82468    0.77868    0.51862    1.000
    Si5577   Si       0.74206    0.78776    0.50242    1.000
    Si5578   Si       0.90242    0.80381    0.53315    1.000
    N5579    N        0.95487    0.79832    0.58804    1.000
    N5580    N        0.94347    0.79347    0.52163    1.000
    Si5581   Si       0.97297    0.78872    0.55050    1.000
    N5582    N        0.88702    0.82257    0.60912    1.000
    N5583    N        0.88488    0.77525    0.55911    1.000
    Si5584   Si       0.92589    0.80741    0.61967    1.000
    N5585    N        0.82817    0.81962    0.72056    1.000
    N5586    N        0.81139    0.80864    0.65282    1.000
    Si5587   Si       0.81365    0.77951    0.72305    1.000
    N5588    N        0.76980    0.78074    0.71736    1.000
    N5589    N        0.95620    0.82800    0.64575    1.000
    N5590    N        0.97298    0.81613    0.72072    1.000
    Si5591   Si       0.93239    0.80633    0.73113    1.000
    Si5592   Si       0.98199    0.80833    0.67801    1.000
    Si5593   Si       0.98734    0.81759    0.61399    1.000
    N5594    N        0.76581    0.79737    0.85364    1.000
    Si5595   Si       0.76468    0.81584    0.81406    1.000
    Si5596   Si       0.82988    0.78898    0.79461    1.000
    N5597    N        0.80641    0.82429    0.80060    1.000
    N5598    N        0.74843    0.78540    0.78796    1.000
    Si5599   Si       0.74025    0.79324    0.74513    1.000
    N5600    N        0.86954    0.80460    0.78367    1.000
    Si5601   Si       0.90808    0.78588    0.85956    1.000
    N5602    N        0.91991    0.80901    0.82378    1.000
    Si5603   Si       0.95883    0.80270    0.80388    1.000
    N5604    N        0.93820    0.78366    0.76920    1.000
    N5605    N        0.90024    0.77952    0.93840    1.000
    N5606    N        0.98258    0.77256    0.82350    1.000
    N5607    N        0.75397    0.79784    0.92261    1.000
    N5608    N        0.82911    0.81230    0.92866    1.000
    Si5609   Si       0.81656    0.79384    0.96548    1.000
    Si5610   Si       0.75460    0.82114    0.88651    1.000
    N5611    N        0.73939    0.82936    0.99282    1.000
    Si5612   Si       0.94367    0.77838    0.92667    1.000
    N5613    N        0.97867    0.79347    0.95055    1.000
    N5614    N        0.94579    0.78435    0.88231    1.000
    Si5615   Si       0.86446    0.79337    0.91735    1.000
    N5616    N        0.87986    0.81051    0.88097    1.000
    Si5617   Si       0.86232    0.83111    0.74686    1.000
    Si5618   Si       0.88947    0.77050    0.97816    1.000
    N5619    N        0.76432    0.87236    0.09982    1.000
    Si5620   Si       0.84566    0.84663    0.08807    1.000
    N5621    N        0.78250    0.87584    0.02721    1.000
    Si5622   Si       0.75425    0.88349    0.05844    1.000
    N5623    N        0.84250    0.88405    0.06590    1.000
    N5624    N        0.94192    0.83250    0.12668    1.000
    N5625    N        0.90245    0.87739    0.00408    1.000
    Si5626   Si       0.92114    0.86125    0.09670    1.000
    N5627    N        0.96835    0.87308    0.08251    1.000
    N5628    N        0.88045    0.86107    0.11390    1.000
    Si5629   Si       0.97706    0.85217    0.04577    1.000
    Si5630   Si       0.98229    0.83634    0.10953    1.000
    N5631    N        0.96008    0.83538    0.00746    1.000
    Si5632   Si       0.96007    0.87357    0.15945    1.000
    N5633    N        0.82375    0.84319    0.12585    1.000
    Si5634   Si       0.78962    0.86886    0.13370    1.000
    N5635    N        0.76411    0.84546    0.16266    1.000
    N5636    N        0.85554    0.87125    0.18324    1.000
    N5637    N        0.82004    0.85795    0.24306    1.000
    Si5638   Si       0.86122    0.84645    0.15072    1.000
    N5639    N        0.93983    0.85277    0.19197    1.000
    Si5640   Si       0.85846    0.86218    0.22575    1.000
    Si5641   Si       0.82981    0.86168    0.33385    1.000
    N5642    N        0.77433    0.87537    0.28920    1.000
    Si5643   Si       0.75780    0.87992    0.32812    1.000
    N5644    N        0.85110    0.88392    0.30187    1.000
    Si5645   Si       0.74837    0.85948    0.25754    1.000
    N5646    N        0.79627    0.88719    0.34365    1.000
    Si5647   Si       0.81502    0.88787    0.27656    1.000
    N5648    N        0.85933    0.84655    0.36066    1.000
    N5649    N        0.74116    0.84838    0.35389    1.000
    N5650    N        0.92159    0.85964    0.28429    1.000
    Si5651   Si       0.96013    0.86789    0.30291    1.000
    N5652    N        0.94857    0.87983    0.34223    1.000
    Si5653   Si       0.89419    0.88754    0.46145    1.000
    N5654    N        0.80125    0.83850    0.42266    1.000
    Si5655   Si       0.80118    0.88156    0.42673    1.000
    Si5656   Si       0.83019    0.86692    0.49236    1.000
    Si5657   Si       0.86889    0.87627    0.39154    1.000
    Si5658   Si       0.95978    0.85257    0.45600    1.000
    N5659    N        0.92759    0.86803    0.47928    1.000
    N5660    N        0.87378    0.85862    0.43047    1.000
    N5661    N        0.95908    0.87526    0.41820    1.000
    Si5662   Si       0.97170    0.86416    0.37771    1.000
    N5663    N        0.81245    0.86066    0.52984    1.000
    N5664    N        0.79436    0.86424    0.61651    1.000
    N5665    N        0.74405    0.87444    0.54760    1.000
    N5666    N        0.86092    0.88894    0.57812    1.000
    N5667    N        0.89840    0.84582    0.54403    1.000
    Si5668   Si       0.89065    0.85852    0.58600    1.000
    N5669    N        0.95843    0.86892    0.53979    1.000
    Si5670   Si       0.92050    0.87453    0.52057    1.000
    N5671    N        0.92908    0.87185    0.60233    1.000
    Si5672   Si       0.96495    0.88665    0.58104    1.000
    N5673    N        0.86973    0.88530    0.49766    1.000
    Si5674   Si       0.80671    0.83716    0.68430    1.000
    Si5675   Si       0.76299    0.87689    0.64376    1.000
    N5676    N        0.76707    0.85397    0.68177    1.000
    N5677    N        0.83096    0.87120    0.67699    1.000
    N5678    N        0.94550    0.87932    0.74024    1.000
    N5679    N        0.93344    0.88630    0.67794    1.000
    Si5680   Si       0.91070    0.87522    0.71274    1.000
    Si5681   Si       0.95096    0.87349    0.64013    1.000
    N5682    N        0.89969    0.83402    0.72695    1.000
    N5683    N        0.73810    0.83706    0.74577    1.000
    Si5684   Si       0.82997    0.86110    0.80584    1.000
    Si5685   Si       0.76889    0.87919    0.84890    1.000
    N5686    N        0.85619    0.86824    0.77179    1.000
    N5687    N        0.86173    0.85436    0.83487    1.000
    N5688    N        0.74116    0.85369    0.82082    1.000
    Si5689   Si       0.97469    0.83346    0.96463    1.000
    Si5690   Si       0.93541    0.88409    0.84745    1.000
    N5691    N        0.97891    0.87392    0.84696    1.000
    Si5692   Si       0.95691    0.87325    0.78163    1.000
    N5693    N        0.92275    0.87075    0.80736    1.000
    Si5694   Si       0.89295    0.84083    0.80775    1.000
    N5695    N        0.97756    0.83518    0.78360    1.000
    N5696    N        0.78787    0.86367    0.95531    1.000
    N5697    N        0.84486    0.87135    0.90487    1.000
    N5698    N        0.78097    0.85544    0.88510    1.000
    Si5699   Si       0.80906    0.85097    0.91916    1.000
    Si5700   Si       0.87349    0.85272    0.87628    1.000
    N5701    N        0.91239    0.87182    0.88232    1.000
    N5702    N        0.93498    0.84534    0.95221    1.000
    Si5703   Si       0.92492    0.87766    0.92519    1.000
    N5704    N        0.80267    0.88858    0.82428    1.000
    Si5705   Si       0.78059    0.84736    0.99410    1.000
    Si5706   Si       0.91972    0.83962    0.99327    1.000
    N5707    N        0.81157    0.93630    0.03306    1.000
    Si5708   Si       0.76998    0.93849    0.02256    1.000
    Si5709   Si       0.82349    0.89486    0.02879    1.000
    N5710    N        0.74518    0.92742    0.05722    1.000
    Si5711   Si       0.88457    0.93171    0.21659    1.000
    Si5712   Si       0.86934    0.90851    0.09313    1.000
    Si5713   Si       0.96577    0.91249    0.10162    1.000
    N5714    N        0.95383    0.92348    0.02243    1.000
    Si5715   Si       0.91330    0.91117    0.03064    1.000
    N5716    N        0.90674    0.89950    0.07238    1.000
    N5717    N        0.88700    0.93897    0.00820    1.000
    Si5718   Si       0.74452    0.93101    0.23227    1.000
    Si5719   Si       0.84018    0.90922    0.16822    1.000
    N5720    N        0.80030    0.90485    0.15540    1.000
    Si5721   Si       0.76894    0.93827    0.16722    1.000
    N5722    N        0.84339    0.93684    0.20169    1.000
    N5723    N        0.77485    0.95063    0.20784    1.000
    Si5724   Si       0.81228    0.94946    0.22830    1.000
    N5725    N        0.93592    0.89726    0.13135    1.000
    Si5726   Si       0.96094    0.94072    0.19430    1.000
    Si5727   Si       0.91032    0.92689    0.14757    1.000
    N5728    N        0.86550    0.92292    0.13470    1.000
    N5729    N        0.98296    0.90635    0.18137    1.000
    N5730    N        0.91817    0.92882    0.18907    1.000
    N5731    N        0.88099    0.89611    0.24312    1.000
    N5732    N        0.75222    0.88941    0.22422    1.000
    N5733    N        0.81592    0.93122    0.26940    1.000
    N5734    N        0.83127    0.94525    0.34597    1.000
    N5735    N        0.74002    0.94208    0.27433    1.000
    N5736    N        0.91295    0.92301    0.30196    1.000
    Si5737   Si       0.92330    0.91696    0.34576    1.000
    N5738    N        0.98924    0.89527    0.28214    1.000
    Si5739   Si       0.98739    0.93814    0.27111    1.000
    Si5740   Si       0.80387    0.92044    0.37029    1.000
    N5741    N        0.82993    0.89778    0.39805    1.000
    Si5742   Si       0.75428    0.93662    0.41619    1.000
    N5743    N        0.81172    0.89578    0.46651    1.000
    N5744    N        0.74843    0.94144    0.45727    1.000
    Si5745   Si       0.81118    0.93265    0.48850    1.000
    N5746    N        0.76443    0.89301    0.40582    1.000
    N5747    N        0.88787    0.90825    0.37192    1.000
    Si5748   Si       0.86683    0.94555    0.37116    1.000
    N5749    N        0.95092    0.93353    0.37580    1.000
    Si5750   Si       0.94912    0.91938    0.41751    1.000
    N5751    N        0.97763    0.93644    0.44610    1.000
    N5752    N        0.90960    0.92128    0.43873    1.000
    Si5753   Si       0.89161    0.88947    0.28574    1.000
    Si5754   Si       0.74530    0.94800    0.49857    1.000
    N5755    N        0.79982    0.91903    0.58089    1.000
    N5756    N        0.77813    0.92381    0.51484    1.000
    N5757    N        0.83858    0.93712    0.52397    1.000
    Si5758   Si       0.82762    0.89329    0.60767    1.000
    Si5759   Si       0.77583    0.94290    0.61117    1.000
    Si5760   Si       0.78381    0.89288    0.54778    1.000
    Si5761   Si       0.73484    0.92296    0.74110    1.000
    Si5762   Si       0.86676    0.90542    0.53655    1.000
    N5763    N        0.91066    0.91378    0.53674    1.000
    N5764    N        0.96387    0.93020    0.57395    1.000
    Si5765   Si       0.95678    0.94369    0.61601    1.000
    Si5766   Si       0.93880    0.94816    0.54217    1.000
    N5767    N        0.97247    0.95004    0.51608    1.000
    Si5768   Si       0.84922    0.90890    0.68025    1.000
    N5769    N        0.75950    0.91982    0.64536    1.000
    N5770    N        0.84636    0.92214    0.63564    1.000
    N5771    N        0.82724    0.94298    0.69687    1.000
    Si5772   Si       0.74179    0.93657    0.68278    1.000
    N5773    N        0.76450    0.94676    0.71763    1.000
    N5774    N        0.97525    0.91115    0.63515    1.000
    N5775    N        0.97219    0.93652    0.72643    1.000
    Si5776   Si       0.96649    0.89838    0.70588    1.000
    N5777    N        0.91496    0.95008    0.62579    1.000
    N5778    N        0.87667    0.90230    0.71433    1.000
    Si5779   Si       0.78779    0.91637    0.79413    1.000
    N5780    N        0.81887    0.92208    0.76261    1.000
    N5781    N        0.75092    0.91650    0.86357    1.000
    N5782    N        0.75203    0.90016    0.77361    1.000
    Si5783   Si       0.86072    0.90967    0.75469    1.000
    N5784    N        0.89376    0.90374    0.94028    1.000
    N5785    N        0.93139    0.92613    0.84592    1.000
    Si5786   Si       0.96269    0.94039    0.82171    1.000
    N5787    N        0.88923    0.93604    0.77103    1.000
    N5788    N        0.97969    0.90823    0.79495    1.000
    N5789    N        0.76970    0.92902    0.97922    1.000
    Si5790   Si       0.80369    0.90544    0.96251    1.000
    N5791    N        0.82503    0.92771    0.93331    1.000
    N5792    N        0.83682    0.89298    0.98707    1.000
    Si5793   Si       0.85909    0.91177    0.91207    1.000
    N5794    N        0.87005    0.93440    0.87750    1.000
    Si5795   Si       0.87849    0.90422    0.98093    1.000
    N5796    N        0.96792    0.88900    0.91767    1.000
    Si5797   Si       0.83682    0.96775    0.04979    1.000
    N5798    N        0.76063    0.98073    0.01921    1.000
    N5799    N        0.80956    0.99434    0.07362    1.000
    N5800    N        0.85721    0.99946    0.02622    1.000
    N5801    N        0.97132    0.96659    0.15928    1.000
    N5802    N        0.93456    0.98704    0.01973    1.000
    Si5803   Si       0.89139    0.98162    0.00527    1.000
    Si5804   Si       0.95966    0.96116    0.04412    1.000
    N5805    N        0.95761    0.95310    0.08675    1.000
    Si5806   Si       0.87101    0.96646    0.12105    1.000
    Si5807   Si       0.95198    0.97848    0.12149    1.000
    N5808    N        0.84816    0.99966    0.13377    1.000
    N5809    N        0.82381    0.99040    0.23980    1.000
    N5810    N        0.76354    0.97076    0.13825    1.000
    N5811    N        0.96479    0.95487    0.23602    1.000
    N5812    N        0.89198    0.96786    0.23638    1.000
    N5813    N        0.91103    0.96773    0.13277    1.000
    N5814    N        0.86537    0.95199    0.07970    1.000
    Si5815   Si       0.93286    0.98335    0.24291    1.000
    N5816    N        0.78441    0.97580    0.31777    1.000
    Si5817   Si       0.75147    0.98169    0.28937    1.000
    Si5818   Si       0.79112    0.98717    0.36292    1.000
    Si5819   Si       0.82202    0.95827    0.30478    1.000
    N5820    N        0.85952    0.97685    0.29254    1.000
    Si5821   Si       0.86449    0.99539    0.25379    1.000
    Si5822   Si       0.89970    0.96528    0.30498    1.000
    N5823    N        0.92711    0.99148    0.28490    1.000
    N5824    N        0.90012    0.96396    0.34875    1.000
    Si5825   Si       0.97769    0.95649    0.35134    1.000
    N5826    N        0.96000    0.99719    0.35349    1.000
    N5827    N        0.97954    0.96045    0.30767    1.000
    Si5828   Si       0.96174    0.00128    0.30881    1.000
    N5829    N        0.95222    0.99703    0.47619    1.000
    Si5830   Si       0.84832    0.99995    0.47001    1.000
    N5831    N        0.81364    0.97070    0.46797    1.000
    Si5832   Si       0.78649    0.00391    0.48556    1.000
    N5833    N        0.78506    0.95489    0.39147    1.000
    N5834    N        0.88639    0.98044    0.47452    1.000
    Si5835   Si       0.89540    0.96229    0.43671    1.000
    N5836    N        0.86089    0.96596    0.40777    1.000
    Si5837   Si       0.92156    0.99490    0.37222    1.000
    Si5838   Si       0.98123    0.96578    0.47752    1.000
    N5839    N        0.92388    0.98791    0.41498    1.000
    N5840    N        0.80510    0.99480    0.55771    1.000
    N5841    N        0.74963    0.96914    0.58968    1.000
    Si5842   Si       0.82403    0.95474    0.56191    1.000
    N5843    N        0.75257    0.98877    0.50728    1.000
    Si5844   Si       0.76666    0.00577    0.57319    1.000
    N5845    N        0.86222    0.96736    0.58163    1.000
    Si5846   Si       0.89084    0.99992    0.57020    1.000
    N5847    N        0.91555    0.98340    0.53891    1.000
    N5848    N        0.97963    0.98172    0.62041    1.000
    Si5849   Si       0.91419    0.00214    0.49966    1.000
    Si5850   Si       0.82360    0.97053    0.66452    1.000
    N5851    N        0.79466    0.97296    0.63264    1.000
    Si5852   Si       0.80432    0.95327    0.73228    1.000
    N5853    N        0.86335    0.98526    0.65574    1.000
    Si5854   Si       0.96686    0.97884    0.72375    1.000
    Si5855   Si       0.87266    0.95674    0.62332    1.000
    N5856    N        0.97373    0.99523    0.68457    1.000
    N5857    N        0.92913    0.99503    0.73628    1.000
    Si5858   Si       0.80328    0.98959    0.79413    1.000
    N5859    N        0.83602    0.98669    0.82252    1.000
    Si5860   Si       0.84814    0.97168    0.86284    1.000
    N5861    N        0.77824    0.95539    0.80541    1.000
    N5862    N        0.81171    0.99096    0.74982    1.000
    N5863    N        0.73959    0.98267    0.85772    1.000
    Si5864   Si       0.77053    0.95275    0.84820    1.000
    Si5865   Si       0.91559    0.97013    0.76889    1.000
    N5866    N        0.88961    0.98758    0.84855    1.000
    N5867    N        0.95419    0.96765    0.79002    1.000
    Si5868   Si       0.98461    0.00519    0.79142    1.000
    Si5869   Si       0.90854    0.95416    0.86764    1.000
    Si5870   Si       0.98030    0.97799    0.88613    1.000
    N5871    N        0.80575    0.95786    0.87288    1.000
    Si5872   Si       0.81394    0.96636    0.91446    1.000
    N5873    N        0.75050    0.95756    0.91790    1.000
    Si5874   Si       0.74541    0.99894    0.89707    1.000
    N5875    N        0.79720    0.98828    0.95004    1.000
    N5876    N        0.84755    0.99353    0.90234    1.000
    Si5877   Si       0.75975    0.96742    0.95985    1.000
    N5878    N        0.93851    0.97056    0.89407    1.000
    N5879    N        0.88327    0.99283    0.96347    1.000
