# CIF file generated by openbabel 3.1.1, see https://openbabel.org
data_I
_chemical_name_common '3.01-83.aims'
_cell_length_a 39.9202
_cell_length_b 39.9202
_cell_length_c 39.9202
_cell_angle_alpha 90
_cell_angle_beta 90
_cell_angle_gamma 90
loop_
    _atom_site_label
    _atom_site_type_symbol
    _atom_site_fract_x
    _atom_site_fract_y
    _atom_site_fract_z
    _atom_site_occupancy
    Si0      Si       0.02274    0.02527    0.08555    1.000
    Si1      Si       0.09878    0.03172    0.05287    1.000
    N2       N        0.07244    0.02306    0.08462    1.000
    N3       N        0.09040    0.05544    0.01687    1.000
    Si4      Si       0.09871    0.04766    0.11207    1.000
    N5       N        0.12320    0.05851    0.07650    1.000
    N6       N        0.18092    0.04138    0.04156    1.000
    Si7      Si       0.22496    0.04030    0.04538    1.000
    N8       N        0.22887    0.01566    0.08427    1.000
    N9       N        0.05998    0.03061    0.19107    1.000
    Si10     Si       0.10407    0.03664    0.18191    1.000
    Si11     Si       0.04927    0.05408    0.22547    1.000
    Si12     Si       0.20959    0.05862    0.17968    1.000
    Si13     Si       0.16606    0.01442    0.13920    1.000
    N14      N        0.12444    0.02903    0.14304    1.000
    N15      N        0.17788    0.06340    0.21121    1.000
    N16      N        0.23627    0.02740    0.19700    1.000
    N17      N        0.19034    0.05146    0.14065    1.000
    Si18     Si       0.05854    0.03182    0.28605    1.000
    N19      N        0.04015    0.05961    0.31429    1.000
    N20      N        0.03946    0.01425    0.25151    1.000
    N21      N        0.07890    0.06323    0.25738    1.000
    N22      N        0.07535    0.04784    0.36925    1.000
    N23      N        0.09335    0.00809    0.29606    1.000
    Si24     Si       0.22849    0.02490    0.30585    1.000
    Si25     Si       0.17315    0.03827    0.36411    1.000
    N26      N        0.22513    0.04576    0.26422    1.000
    N27      N        0.20143    0.04165    0.33415    1.000
    N28      N        0.15058    0.04133    0.27743    1.000
    N29      N        0.13809    0.01349    0.34762    1.000
    Si30     Si       0.18382    0.03895    0.24802    1.000
    Si31     Si       0.10565    0.01812    0.37921    1.000
    N32      N        0.09571    0.04662    0.48556    1.000
    Si33     Si       0.10389    0.05687    0.44276    1.000
    N34      N        0.00145    0.03412    0.48650    1.000
    Si35     Si       0.04399    0.04675    0.40088    1.000
    N36      N        0.11379    0.02013    0.42071    1.000
    Si37     Si       0.20069    0.05042    0.46436    1.000
    N38      N        0.17859    0.01287    0.46120    1.000
    Si39     Si       0.07296    0.04160    0.56551    1.000
    N40      N        0.06709    0.04016    0.60627    1.000
    N41      N        0.03289    0.04125    0.54883    1.000
    Si42     Si       0.01521    0.06343    0.51452    1.000
    N43      N        0.09333    0.00712    0.54648    1.000
    Si44     Si       0.18936    0.03778    0.53458    1.000
    Si45     Si       0.22190    0.05051    0.60182    1.000
    N46      N        0.19399    0.06047    0.57110    1.000
    N47      N        0.15659    0.00815    0.53254    1.000
    N48      N        0.02945    0.05881    0.71466    1.000
    N49      N        0.09603    0.04606    0.72553    1.000
    Si50     Si       0.99511    0.03635    0.63358    1.000
    Si51     Si       0.02093    0.02069    0.69689    1.000
    N52      N        0.14511    0.03510    0.64751    1.000
    N53      N        0.20679    0.01503    0.67337    1.000
    Si54     Si       0.13670    0.05277    0.74020    1.000
    Si55     Si       0.19710    0.01189    0.71593    1.000
    Si56     Si       0.18188    0.05151    0.66619    1.000
    N57      N        0.17501    0.04933    0.71786    1.000
    N58      N        0.05357    0.04163    0.78023    1.000
    Si59     Si       0.05013    0.02695    0.82453    1.000
    N60      N        0.09189    0.02001    0.83433    1.000
    Si61     Si       0.07124    0.01800    0.74932    1.000
    N62      N        0.15056    0.03719    0.77846    1.000
    N63      N        0.17908    0.04569    0.84557    1.000
    Si64     Si       0.21054    0.01784    0.83686    1.000
    Si65     Si       0.16314    0.06673    0.80952    1.000
    Si66     Si       0.10138    0.02409    0.87554    1.000
    N67      N        0.00819    0.04918    0.93965    1.000
    N68      N        0.06954    0.03449    0.91047    1.000
    Si69     Si       0.09120    0.03943    0.97745    1.000
    Si70     Si       0.04097    0.01987    0.93799    1.000
    Si71     Si       0.16620    0.03290    0.95966    1.000
    N72      N        0.19697    0.06145    0.97130    1.000
    Si73     Si       0.22633    0.05872    0.93791    1.000
    Si74     Si       0.16871    0.04836    0.88967    1.000
    N75      N        0.12614    0.05021    0.95335    1.000
    N76      N        0.12550    0.05729    0.88723    1.000
    N77      N        0.17690    0.01711    0.91884    1.000
    N78      N        0.05098    0.11597    0.02803    1.000
    Si79     Si       0.03899    0.09702    0.11104    1.000
    Si80     Si       0.07786    0.09301    0.00078    1.000
    N81      N        0.02172    0.07061    0.08397    1.000
    Si82     Si       0.01671    0.12600    0.00398    1.000
    N83      N        0.17511    0.09419    0.08366    1.000
    N84      N        0.15987    0.09828    0.01450    1.000
    Si85     Si       0.15608    0.07551    0.05153    1.000
    Si86     Si       0.20113    0.09378    0.00062    1.000
    Si87     Si       0.20059    0.08627    0.11726    1.000
    N88      N        0.23552    0.08253    0.02677    1.000
    N89      N        0.02090    0.08369    0.21934    1.000
    N90      N        0.00976    0.10285    0.14398    1.000
    N91      N        0.07499    0.07992    0.12838    1.000
    Si92     Si       0.02389    0.11106    0.18533    1.000
    Si93     Si       0.09443    0.10467    0.15696    1.000
    N94      N        0.11177    0.07836    0.18792    1.000
    N95      N        0.18648    0.12331    0.13568    1.000
    N96      N        0.23062    0.11092    0.23362    1.000
    Si97     Si       0.14403    0.09272    0.21489    1.000
    Si98     Si       0.07074    0.07938    0.33856    1.000
    N99      N        0.05564    0.11750    0.35349    1.000
    N100     N        0.10901    0.08256    0.32057    1.000
    Si101    Si       0.99684    0.06820    0.31495    1.000
    Si102    Si       0.11720    0.06973    0.27848    1.000
    Si103    Si       0.13513    0.10778    0.34750    1.000
    N104     N        0.22058    0.10511    0.30466    1.000
    N105     N        0.13272    0.10146    0.25433    1.000
    N106     N        0.15719    0.07771    0.37161    1.000
    N107     N        0.01273    0.07656    0.39820    1.000
    Si108    Si       0.03474    0.11178    0.41896    1.000
    N109     N        0.06505    0.07020    0.43048    1.000
    N110     N        0.01532    0.11878    0.46139    1.000
    Si111    Si       0.17042    0.09109    0.41128    1.000
    N112     N        0.13796    0.08566    0.44092    1.000
    N113     N        0.20536    0.06815    0.42533    1.000
    Si114    Si       0.14721    0.12425    0.46103    1.000
    Si115    Si       0.10269    0.10715    0.57971    1.000
    N116     N        0.06782    0.10998    0.60432    1.000
    Si117    Si       0.09250    0.08365    0.50676    1.000
    N118     N        0.09541    0.07529    0.55062    1.000
    N119     N        0.04951    0.09063    0.50535    1.000
    Si120    Si       0.17173    0.09560    0.58393    1.000
    N121     N        0.13410    0.08995    0.60476    1.000
    Si122    Si       0.19833    0.10730    0.51147    1.000
    N123     N        0.12188    0.11479    0.49780    1.000
    N124     N        0.18737    0.06853    0.50162    1.000
    N125     N        0.99590    0.11333    0.70382    1.000
    Si126    Si       0.05789    0.07646    0.62962    1.000
    Si127    Si       0.99692    0.08314    0.73412    1.000
    Si128    Si       0.00197    0.10831    0.66132    1.000
    N129     N        0.07299    0.11536    0.71537    1.000
    Si130    Si       0.06877    0.07425    0.70255    1.000
    N131     N        0.01723    0.07292    0.64388    1.000
    N132     N        0.08728    0.07616    0.66210    1.000
    N133     N        0.15821    0.09252    0.67202    1.000
    Si134    Si       0.21362    0.11336    0.63960    1.000
    Si135    Si       0.12824    0.07657    0.64697    1.000
    Si136    Si       0.17155    0.09274    0.71349    1.000
    N137     N        0.20200    0.11806    0.73576    1.000
    N138     N        0.13611    0.09554    0.73956    1.000
    N139     N        0.21012    0.06952    0.63886    1.000
    N140     N        0.00959    0.09659    0.77444    1.000
    N141     N        0.08176    0.11159    0.78427    1.000
    Si142    Si       0.04775    0.08386    0.79130    1.000
    Si143    Si       0.01607    0.08479    0.86547    1.000
    N144     N        0.08826    0.12222    0.85333    1.000
    Si145    Si       0.10152    0.12131    0.74743    1.000
    N146     N        0.04192    0.07008    0.83284    1.000
    N147     N        0.99107    0.11084    0.84332    1.000
    Si148    Si       0.10758    0.12716    0.81512    1.000
    Si149    Si       0.22752    0.08517    0.82648    1.000
    N150     N        0.19781    0.08805    0.79613    1.000
    N151     N        0.13514    0.09231    0.82601    1.000
    N152     N        0.21942    0.11752    0.85614    1.000
    Si153    Si       0.22436    0.12350    0.77712    1.000
    Si154    Si       0.12124    0.09661    0.86854    1.000
    N155     N        0.03701    0.10165    0.89854    1.000
    N156     N        0.06616    0.07614    0.96093    1.000
    N157     N        0.09932    0.10998    0.91332    1.000
    Si158    Si       0.03038    0.08719    0.94016    1.000
    N159     N        0.00836    0.11577    0.96204    1.000
    Si160    Si       0.09713    0.06862    0.92505    1.000
    Si161    Si       0.19572    0.11711    0.89059    1.000
    N162     N        0.19884    0.07640    0.90536    1.000
    N163     N        0.15355    0.12444    0.88271    1.000
    N164     N        0.05314    0.13506    0.09528    1.000
    Si165    Si       0.03950    0.17517    0.10283    1.000
    N166     N        0.08489    0.17659    0.04179    1.000
    Si167    Si       0.07705    0.13486    0.05939    1.000
    N168     N        0.00149    0.18042    0.08078    1.000
    Si169    Si       0.07102    0.16645    0.00202    1.000
    N170     N        0.02558    0.16888    0.00494    1.000
    Si171    Si       0.99418    0.17042    0.03872    1.000
    Si172    Si       0.13522    0.17083    0.05783    1.000
    Si173    Si       0.21169    0.17004    0.08264    1.000
    N174     N        0.15016    0.17149    0.01505    1.000
    N175     N        0.16901    0.16133    0.08552    1.000
    N176     N        0.23072    0.14709    0.05192    1.000
    N177     N        0.11939    0.12795    0.06796    1.000
    N178     N        0.23693    0.16690    0.11760    1.000
    Si179    Si       0.23639    0.15885    0.01012    1.000
    Si180    Si       0.15021    0.12630    0.10099    1.000
    N181     N        0.06459    0.12796    0.17797    1.000
    N182     N        0.99579    0.14368    0.19865    1.000
    Si183    Si       0.06772    0.17111    0.17721    1.000
    N184     N        0.03293    0.17524    0.14601    1.000
    Si185    Si       0.99694    0.17262    0.16754    1.000
    N186     N        0.11203    0.17524    0.17676    1.000
    N187     N        0.16109    0.12965    0.20118    1.000
    N188     N        0.22436    0.15199    0.18917    1.000
    Si189    Si       0.14716    0.15016    0.16591    1.000
    N190     N        0.17450    0.18235    0.15470    1.000
    Si191    Si       0.19856    0.13997    0.22254    1.000
    Si192    Si       0.21049    0.15608    0.14832    1.000
    N193     N        0.12430    0.12616    0.13620    1.000
    N194     N        0.00432    0.16977    0.33090    1.000
    Si195    Si       0.01465    0.13254    0.35076    1.000
    N196     N        0.10614    0.16316    0.26309    1.000
    Si197    Si       0.19540    0.13769    0.31898    1.000
    Si198    Si       0.14027    0.14071    0.27271    1.000
    N199     N        0.17909    0.15460    0.25784    1.000
    N200     N        0.21182    0.13026    0.36159    1.000
    N201     N        0.20639    0.17978    0.31320    1.000
    N202     N        0.15478    0.12987    0.31459    1.000
    Si203    Si       0.08000    0.14828    0.37601    1.000
    N204     N        0.00677    0.13918    0.39337    1.000
    N205     N        0.06655    0.16250    0.48792    1.000
    N206     N        0.06917    0.14126    0.41776    1.000
    Si207    Si       0.08575    0.16948    0.44885    1.000
    Si208    Si       0.03857    0.13036    0.49615    1.000
    N209     N        0.12216    0.14007    0.37615    1.000
    N210     N        0.18478    0.13596    0.48125    1.000
    Si211    Si       0.14553    0.16642    0.40592    1.000
    Si212    Si       0.21573    0.16533    0.46663    1.000
    N213     N        0.12899    0.16444    0.44894    1.000
    Si214    Si       0.20938    0.15766    0.39707    1.000
    N215     N        0.17371    0.13252    0.41588    1.000
    N216     N        0.23764    0.15326    0.42967    1.000
    N217     N        0.01099    0.15342    0.59910    1.000
    Si218    Si       0.01545    0.17097    0.55877    1.000
    N219     N        0.01436    0.13793    0.52999    1.000
    N220     N        0.07732    0.18027    0.61864    1.000
    N221     N        0.11422    0.14807    0.56829    1.000
    Si222    Si       0.04971    0.14603    0.61777    1.000
    Si223    Si       0.09307    0.18407    0.57769    1.000
    Si224    Si       0.13718    0.14128    0.53025    1.000
    Si225    Si       0.19614    0.15533    0.57200    1.000
    N226     N        0.15002    0.18075    0.51750    1.000
    N227     N        0.24033    0.15364    0.56372    1.000
    N228     N        0.17684    0.12458    0.54505    1.000
    N229     N        0.19282    0.12745    0.60487    1.000
    N230     N        0.09522    0.17370    0.68515    1.000
    Si231    Si       0.05991    0.14862    0.69146    1.000
    Si232    Si       0.99600    0.15562    0.70319    1.000
    N233     N        0.03622    0.13351    0.65829    1.000
    N234     N        0.03344    0.17312    0.71259    1.000
    Si235    Si       0.23170    0.14023    0.71130    1.000
    N236     N        0.20544    0.13992    0.67226    1.000
    Si237    Si       0.21476    0.17962    0.66164    1.000
    N238     N        0.23292    0.18412    0.70228    1.000
    N239     N        0.11475    0.16345    0.75345    1.000
    N240     N        0.13599    0.15966    0.81895    1.000
    N241     N        0.21546    0.15903    0.80287    1.000
    Si242    Si       0.15057    0.16361    0.85991    1.000
    Si243    Si       0.22332    0.16006    0.84529    1.000
    N244     N        0.18960    0.18518    0.86035    1.000
    N245     N        0.05625    0.17526    0.88764    1.000
    Si246    Si       0.06562    0.13291    0.89048    1.000
    N247     N        0.09814    0.13074    0.99190    1.000
    N248     N        0.21045    0.13383    0.98732    1.000
    N249     N        0.12316    0.17698    0.89188    1.000
    Si250    Si       0.14198    0.13500    0.99354    1.000
    Si251    Si       0.19181    0.15416    0.95428    1.000
    N252     N        0.20924    0.14964    0.91533    1.000
    Si253    Si       0.12893    0.14118    0.91659    1.000
    N254     N        0.15192    0.13892    0.95160    1.000
    N255     N        0.06252    0.21025    0.09582    1.000
    Si256    Si       0.08862    0.21639    0.06294    1.000
    N257     N        0.02248    0.23706    0.99775    1.000
    Si258    Si       0.98543    0.24134    0.02019    1.000
    N259     N        0.13382    0.21418    0.06709    1.000
    N260     N        0.21168    0.21226    0.07032    1.000
    Si261    Si       0.17298    0.23275    0.06250    1.000
    N262     N        0.18359    0.23917    0.01963    1.000
    Si263    Si       0.22674    0.24202    0.00890    1.000
    Si264    Si       0.16310    0.20875    0.99472    1.000
    Si265    Si       0.02565    0.22221    0.21522    1.000
    N266     N        0.05653    0.19133    0.21942    1.000
    N267     N        0.07239    0.22321    0.16222    1.000
    Si268    Si       0.05952    0.24139    0.12580    1.000
    N269     N        0.99016    0.20974    0.19096    1.000
    Si270    Si       0.11131    0.22043    0.18027    1.000
    N271     N        0.11560    0.22564    0.22180    1.000
    N272     N        0.18546    0.22462    0.20395    1.000
    Si273    Si       0.15549    0.24027    0.23056    1.000
    Si274    Si       0.22675    0.22635    0.21647    1.000
    Si275    Si       0.17646    0.22438    0.16073    1.000
    N276     N        0.13905    0.24338    0.15867    1.000
    Si277    Si       0.02882    0.20051    0.35180    1.000
    N278     N        0.07714    0.22414    0.28037    1.000
    Si279    Si       0.10183    0.21846    0.35969    1.000
    N280     N        0.01131    0.23120    0.25717    1.000
    N281     N        0.02422    0.23870    0.33104    1.000
    N282     N        0.07024    0.18619    0.35687    1.000
    Si283    Si       0.08870    0.19848    0.24716    1.000
    N284     N        0.16322    0.22288    0.27045    1.000
    N285     N        0.14019    0.22992    0.33866    1.000
    Si286    Si       0.19391    0.19090    0.27440    1.000
    Si287    Si       0.23068    0.20420    0.33874    1.000
    N288     N        0.22907    0.19973    0.24975    1.000
    N289     N        0.20672    0.23953    0.34964    1.000
    Si290    Si       0.16962    0.22510    0.36980    1.000
    Si291    Si       0.99849    0.21269    0.46711    1.000
    N292     N        0.07513    0.21090    0.44172    1.000
    N293     N        0.01110    0.20607    0.39036    1.000
    Si294    Si       0.11246    0.23453    0.43004    1.000
    N295     N        0.12309    0.20534    0.39619    1.000
    N296     N        0.18240    0.18684    0.38307    1.000
    N297     N        0.13682    0.23472    0.46743    1.000
    Si298    Si       0.15238    0.19237    0.47541    1.000
    Si299    Si       0.19653    0.23990    0.43957    1.000
    N300     N        0.19319    0.19969    0.45675    1.000
    Si301    Si       0.05629    0.19741    0.51350    1.000
    N302     N        0.01345    0.19970    0.50410    1.000
    N303     N        0.06981    0.23621    0.50123    1.000
    N304     N        0.05662    0.18624    0.55409    1.000
    N305     N        0.12012    0.21739    0.56993    1.000
    N306     N        0.18871    0.19907    0.57141    1.000
    Si307    Si       0.21757    0.22165    0.59750    1.000
    Si308    Si       0.15585    0.21208    0.54596    1.000
    N309     N        0.07818    0.21912    0.73928    1.000
    Si310    Si       0.10972    0.19178    0.72349    1.000
    Si311    Si       0.04245    0.21596    0.71385    1.000
    N312     N        0.05462    0.22824    0.67319    1.000
    Si313    Si       0.08644    0.20447    0.65266    1.000
    N314     N        0.99605    0.23827    0.64099    1.000
    N315     N        0.01219    0.24096    0.73480    1.000
    Si316    Si       0.14986    0.22552    0.67124    1.000
    N317     N        0.18922    0.21438    0.66099    1.000
    N318     N        0.14200    0.21679    0.71099    1.000
    Si319    Si       0.16944    0.23575    0.73958    1.000
    N320     N        0.11780    0.22988    0.64172    1.000
    N321     N        0.23135    0.18907    0.62182    1.000
    N322     N        0.08494    0.23747    0.85531    1.000
    Si323    Si       0.00834    0.24058    0.77834    1.000
    N324     N        0.04650    0.23850    0.79896    1.000
    Si325    Si       0.08271    0.24201    0.77593    1.000
    N326     N        0.11422    0.22045    0.79848    1.000
    N327     N        0.17208    0.20290    0.76571    1.000
    Si328    Si       0.20896    0.19732    0.78571    1.000
    N329     N        0.20976    0.22725    0.81636    1.000
    Si330    Si       0.19760    0.22847    0.86163    1.000
    Si331    Si       0.13636    0.18547    0.78452    1.000
    N332     N        0.01610    0.23026    0.87034    1.000
    Si333    Si       0.01790    0.19307    0.89008    1.000
    N334     N        0.08983    0.23888    0.91746    1.000
    Si335    Si       0.09112    0.20605    0.88852    1.000
    Si336    Si       0.09138    0.23408    0.95961    1.000
    N337     N        0.07224    0.19783    0.97194    1.000
    Si338    Si       0.02751    0.20141    0.97390    1.000
    N339     N        0.00791    0.19575    0.93346    1.000
    N340     N        0.19193    0.19419    0.96670    1.000
    N341     N        0.13228    0.23196    0.97677    1.000
    N342     N        0.19364    0.23898    0.90884    1.000
    Si343    Si       0.21390    0.22258    0.94315    1.000
    Si344    Si       0.08044    0.28656    0.07530    1.000
    Si345    Si       0.05449    0.26589    0.01022    1.000
    Si346    Si       0.00688    0.28322    0.09181    1.000
    N347     N        0.07702    0.25377    0.04446    1.000
    N348     N        0.09059    0.27116    0.11455    1.000
    N349     N        0.16798    0.27192    0.08062    1.000
    Si350    Si       0.18561    0.28355    0.11803    1.000
    Si351    Si       0.15354    0.30128    0.05236    1.000
    N352     N        0.15137    0.30110    0.00665    1.000
    N353     N        0.02242    0.26194    0.12871    1.000
    N354     N        0.03287    0.26243    0.20141    1.000
    Si355    Si       0.00979    0.27835    0.16664    1.000
    Si356    Si       0.06473    0.29235    0.19957    1.000
    N357     N        0.08572    0.29396    0.23930    1.000
    N358     N        0.10218    0.29468    0.18036    1.000
    N359     N        0.16120    0.28213    0.22925    1.000
    Si360    Si       0.12085    0.28147    0.14429    1.000
    N361     N        0.23118    0.26646    0.23202    1.000
    N362     N        0.20213    0.24946    0.13869    1.000
    N363     N        0.04499    0.28594    0.29275    1.000
    Si364    Si       0.04623    0.27760    0.35199    1.000
    Si365    Si       0.08472    0.29734    0.28280    1.000
    N366     N        0.07910    0.25469    0.36320    1.000
    Si367    Si       0.03860    0.24237    0.28880    1.000
    N368     N        0.12304    0.28433    0.30101    1.000
    Si369    Si       0.20544    0.28084    0.33326    1.000
    N370     N        0.18765    0.27629    0.29400    1.000
    Si371    Si       0.15368    0.25009    0.30294    1.000
    Si372    Si       0.19950    0.28955    0.25245    1.000
    N373     N        0.16996    0.29621    0.35518    1.000
    N374     N        0.04163    0.28698    0.48190    1.000
    N375     N        0.01874    0.28151    0.38596    1.000
    N376     N        0.09167    0.27272    0.43799    1.000
    Si377    Si       0.99749    0.27874    0.46753    1.000
    Si378    Si       0.05939    0.24965    0.45837    1.000
    Si379    Si       0.99894    0.24547    0.40202    1.000
    N380     N        0.01847    0.24378    0.44437    1.000
    Si381    Si       0.17005    0.29445    0.39907    1.000
    N382     N        0.23603    0.24916    0.41655    1.000
    Si383    Si       0.22816    0.29498    0.48372    1.000
    Si384    Si       0.15496    0.26744    0.49127    1.000
    N385     N        0.19602    0.26901    0.47264    1.000
    N386     N        0.16821    0.25178    0.40596    1.000
    N387     N        0.13662    0.30631    0.48781    1.000
    N388     N        0.09105    0.28151    0.54888    1.000
    Si389    Si       0.02036    0.28703    0.57796    1.000
    N390     N        0.01835    0.25713    0.54674    1.000
    Si391    Si       0.05450    0.27158    0.52149    1.000
    N392     N        0.04142    0.28275    0.61938    1.000
    Si393    Si       0.12631    0.26149    0.56154    1.000
    N394     N        0.14554    0.27778    0.59686    1.000
    N395     N        0.21408    0.29381    0.56230    1.000
    Si396    Si       0.18851    0.29310    0.59794    1.000
    N397     N        0.15600    0.25301    0.53066    1.000
    N398     N        0.20897    0.26066    0.62039    1.000
    Si399    Si       0.03105    0.26021    0.65580    1.000
    N400     N        0.02230    0.29130    0.68565    1.000
    Si401    Si       0.00004    0.27964    0.72107    1.000
    N402     N        0.09950    0.30101    0.65306    1.000
    N403     N        0.21476    0.29794    0.67548    1.000
    N404     N        0.20369    0.25098    0.71571    1.000
    N405     N        0.15785    0.27028    0.67091    1.000
    Si406    Si       0.12866    0.27242    0.63642    1.000
    Si407    Si       0.17707    0.29109    0.70602    1.000
    Si408    Si       0.20860    0.25484    0.66354    1.000
    N409     N        0.08629    0.28376    0.76201    1.000
    N410     N        0.04756    0.28805    0.86166    1.000
    Si411    Si       0.04481    0.24571    0.84139    1.000
    N412     N        0.12632    0.28542    0.81696    1.000
    Si413    Si       0.12534    0.29444    0.77529    1.000
    N414     N        0.22880    0.26307    0.85953    1.000
    N415     N        0.15455    0.24269    0.86217    1.000
    N416     N        0.15414    0.27566    0.74743    1.000
    Si417    Si       0.12281    0.24557    0.83418    1.000
    N418     N        0.08465    0.27391    0.97925    1.000
    Si419    Si       0.07960    0.27500    0.89285    1.000
    N420     N        0.05149    0.29475    0.92582    1.000
    N421     N        0.11074    0.30541    0.88464    1.000
    Si422    Si       0.13204    0.27653    0.97708    1.000
    Si423    Si       0.16437    0.26762    0.89932    1.000
    N424     N        0.22719    0.25769    0.96817    1.000
    N425     N        0.14663    0.28787    0.93834    1.000
    Si426    Si       0.22295    0.29902    0.87963    1.000
    Si427    Si       0.03494    0.33106    0.03715    1.000
    Si428    Si       0.10494    0.35247    0.05314    1.000
    N429     N        0.99536    0.34810    0.02790    1.000
    Si430    Si       0.98751    0.31311    0.99932    1.000
    N431     N        0.03985    0.30167    0.07031    1.000
    N432     N        0.03328    0.30363    0.00166    1.000
    N433     N        0.11252    0.31050    0.06022    1.000
    Si434    Si       0.22778    0.34109    0.05579    1.000
    N435     N        0.18599    0.33476    0.04859    1.000
    Si436    Si       0.16726    0.34406    0.00997    1.000
    N437     N        0.03645    0.31647    0.17346    1.000
    Si438    Si       0.01103    0.35158    0.17642    1.000
    Si439    Si       0.18444    0.33716    0.15144    1.000
    N440     N        0.15571    0.30637    0.14284    1.000
    N441     N        0.19137    0.34671    0.19327    1.000
    N442     N        0.21368    0.31529    0.12714    1.000
    Si443    Si       0.12331    0.30412    0.21687    1.000
    Si444    Si       0.22927    0.34768    0.21638    1.000
    N445     N        0.12788    0.34679    0.22775    1.000
    N446     N        0.08434    0.34078    0.28607    1.000
    Si447    Si       0.08058    0.34928    0.32754    1.000
    Si448    Si       0.01086    0.31269    0.29391    1.000
    N449     N        0.05958    0.31865    0.34809    1.000
    N450     N        0.99772    0.35200    0.31367    1.000
    N451     N        0.99616    0.32162    0.25463    1.000
    N452     N        0.12091    0.34105    0.34193    1.000
    Si453    Si       0.21710    0.33955    0.29620    1.000
    N454     N        0.17390    0.34311    0.30018    1.000
    Si455    Si       0.14841    0.31335    0.32097    1.000
    N456     N        0.22066    0.32618    0.25485    1.000
    N457     N        0.23359    0.31483    0.32989    1.000
    N458     N        0.08654    0.34285    0.45098    1.000
    N459     N        0.01634    0.33596    0.43516    1.000
    Si460    Si       0.04757    0.32760    0.46502    1.000
    Si461    Si       0.99242    0.31132    0.40570    1.000
    Si462    Si       0.11467    0.30939    0.44850    1.000
    N463     N        0.20823    0.31323    0.40861    1.000
    Si464    Si       0.20540    0.35555    0.40109    1.000
    Si465    Si       0.12926    0.35180    0.38331    1.000
    N466     N        0.13817    0.31875    0.41296    1.000
    N467     N        0.21517    0.33267    0.49805    1.000
    Si468    Si       0.08175    0.32300    0.55844    1.000
    N469     N        0.08993    0.33840    0.59900    1.000
    N470     N        0.03873    0.31710    0.55039    1.000
    Si471    Si       0.00824    0.33457    0.52177    1.000
    N472     N        0.10083    0.35161    0.53181    1.000
    N473     N        0.03893    0.35606    0.49796    1.000
    Si474    Si       0.14052    0.33823    0.51856    1.000
    Si475    Si       0.21228    0.33070    0.54134    1.000
    N476     N        0.17163    0.34452    0.54947    1.000
    N477     N        0.18264    0.33311    0.61678    1.000
    Si478    Si       0.06634    0.31641    0.62796    1.000
    Si479    Si       0.03615    0.33321    0.68798    1.000
    N480     N        0.07575    0.33014    0.70876    1.000
    N481     N        0.04476    0.34751    0.64743    1.000
    Si482    Si       0.11027    0.33131    0.68495    1.000
    N483     N        0.15116    0.32786    0.70486    1.000
    Si484    Si       0.21313    0.33571    0.65181    1.000
    Si485    Si       0.15488    0.35382    0.73731    1.000
    N486     N        0.21961    0.32130    0.73700    1.000
    N487     N        0.08144    0.34031    0.83190    1.000
    N488     N        0.01085    0.33678    0.81216    1.000
    Si489    Si       0.04138    0.32774    0.84120    1.000
    N490     N        0.06432    0.35499    0.76848    1.000
    Si491    Si       0.99087    0.31518    0.78073    1.000
    Si492    Si       0.06188    0.31637    0.74823    1.000
    N493     N        0.01859    0.31114    0.74775    1.000
    Si494    Si       0.11670    0.31983    0.84409    1.000
    N495     N        0.13189    0.33753    0.77152    1.000
    N496     N        0.15204    0.34570    0.83594    1.000
    Si497    Si       0.22726    0.35776    0.75527    1.000
    N498     N        0.23277    0.33688    0.85586    1.000
    N499     N        0.02289    0.34228    0.87928    1.000
    N500     N        0.10035    0.33485    0.95334    1.000
    Si501    Si       0.06169    0.31355    0.96459    1.000
    N502     N        0.04365    0.35854    0.96645    1.000
    Si503    Si       0.02095    0.30229    0.89451    1.000
    N504     N        0.18205    0.30635    0.88412    1.000
    Si505    Si       0.17466    0.34857    0.87105    1.000
    Si506    Si       0.12788    0.32319    0.92130    1.000
    N507     N        0.15243    0.35680    0.90908    1.000
    Si508    Si       0.05947    0.40404    0.03028    1.000
    N509     N        0.06468    0.36272    0.04088    1.000
    N510     N        0.05751    0.41284    0.10627    1.000
    N511     N        0.11314    0.37419    0.09153    1.000
    N512     N        0.22610    0.37417    0.08434    1.000
    Si513    Si       0.22970    0.41366    0.06135    1.000
    N514     N        0.13232    0.36734    0.02239    1.000
    Si515    Si       0.20561    0.39590    0.11720    1.000
    N516     N        0.20673    0.41661    0.02484    1.000
    Si517    Si       0.12307    0.40361    0.99979    1.000
    Si518    Si       0.22022    0.38359    0.99915    1.000
    Si519    Si       0.09847    0.39830    0.19300    1.000
    N520     N        0.09159    0.37418    0.15514    1.000
    N521     N        0.07939    0.39872    0.23490    1.000
    N522     N        0.01180    0.38388    0.14676    1.000
    N523     N        0.01837    0.37582    0.21216    1.000
    Si524    Si       0.05394    0.39691    0.14673    1.000
    Si525    Si       0.03661    0.40767    0.23502    1.000
    N526     N        0.23303    0.39954    0.15022    1.000
    Si527    Si       0.12933    0.38282    0.13040    1.000
    Si528    Si       0.16107    0.36919    0.21334    1.000
    N529     N        0.14047    0.40241    0.19287    1.000
    N530     N        0.17174    0.37328    0.13095    1.000
    Si531    Si       0.21340    0.41328    0.23846    1.000
    N532     N        0.06045    0.38713    0.33447    1.000
    Si533    Si       0.02031    0.38961    0.31521    1.000
    N534     N        0.01172    0.40548    0.27320    1.000
    Si535    Si       0.10328    0.36625    0.25663    1.000
    Si536    Si       0.08218    0.40703    0.36584    1.000
    N537     N        0.12384    0.39672    0.27836    1.000
    Si538    Si       0.16309    0.38393    0.28818    1.000
    N539     N        0.17534    0.41076    0.31945    1.000
    N540     N        0.23679    0.37847    0.30487    1.000
    N541     N        0.18107    0.38542    0.24921    1.000
    Si542    Si       0.21856    0.42156    0.31578    1.000
    Si543    Si       0.01028    0.38019    0.44098    1.000
    N544     N        0.09609    0.37840    0.39351    1.000
    N545     N        0.04871    0.39855    0.44510    1.000
    Si546    Si       0.09107    0.38308    0.43888    1.000
    N547     N        0.99291    0.39303    0.40363    1.000
    N548     N        0.22964    0.39812    0.49088    1.000
    Si549    Si       0.16660    0.40527    0.41606    1.000
    N550     N        0.15611    0.37203    0.49199    1.000
    Si551    Si       0.19841    0.36741    0.48138    1.000
    N552     N        0.16739    0.37065    0.38511    1.000
    Si553    Si       0.13192    0.40814    0.48517    1.000
    N554     N        0.13044    0.40648    0.44111    1.000
    N555     N        0.20014    0.38023    0.43743    1.000
    Si556    Si       0.22465    0.41696    0.45092    1.000
    N557     N        0.24294    0.36517    0.38001    1.000
    N558     N        0.03582    0.40520    0.54235    1.000
    N559     N        0.00397    0.38963    0.60758    1.000
    Si560    Si       0.00114    0.39317    0.56517    1.000
    Si561    Si       0.06620    0.38187    0.52081    1.000
    N562     N        0.07480    0.40388    0.61592    1.000
    Si563    Si       0.10633    0.37309    0.61771    1.000
    N564     N        0.08849    0.40710    0.49325    1.000
    N565     N        0.13957    0.39065    0.59819    1.000
    N566     N        0.20993    0.39540    0.58959    1.000
    Si567    Si       0.17658    0.36569    0.58888    1.000
    Si568    Si       0.99758    0.40496    0.69289    1.000
    Si569    Si       0.03796    0.39071    0.63611    1.000
    N570     N        0.01819    0.36916    0.70706    1.000
    N571     N        0.04892    0.42004    0.73911    1.000
    Si572    Si       0.22737    0.40172    0.69208    1.000
    N573     N        0.23686    0.39795    0.73522    1.000
    Si574    Si       0.15739    0.38184    0.67442    1.000
    N575     N        0.11885    0.36558    0.65978    1.000
    N576     N        0.14574    0.39303    0.71707    1.000
    N577     N        0.19981    0.36932    0.67441    1.000
    Si578    Si       0.08108    0.37313    0.80359    1.000
    N579     N        0.04570    0.39693    0.82111    1.000
    Si580    Si       0.00597    0.38193    0.81185    1.000
    N581     N        0.00330    0.39491    0.76990    1.000
    Si582    Si       0.03621    0.37915    0.74572    1.000
    N583     N        0.11848    0.39503    0.79823    1.000
    Si584    Si       0.20470    0.41039    0.76294    1.000
    N585     N        0.18421    0.37241    0.76814    1.000
    N586     N        0.19455    0.38833    0.86534    1.000
    Si587    Si       0.15018    0.36671    0.79793    1.000
    Si588    Si       0.23745    0.37770    0.87003    1.000
    Si589    Si       0.00027    0.37016    0.96237    1.000
    N590     N        0.99917    0.39216    0.92459    1.000
    Si591    Si       0.08386    0.37420    0.95827    1.000
    N592     N        0.07814    0.39620    0.92038    1.000
    N593     N        0.08057    0.40846    0.99134    1.000
    Si594    Si       0.03695    0.41354    0.91673    1.000
    Si595    Si       0.98884    0.36915    0.88797    1.000
    Si596    Si       0.11800    0.41477    0.91767    1.000
    N597     N        0.13118    0.39461    0.95612    1.000
    N598     N        0.18908    0.41515    0.92646    1.000
    Si599    Si       0.17035    0.37911    0.94133    1.000
    N600     N        0.18799    0.36329    0.97870    1.000
    Si601    Si       0.03109    0.43674    0.08177    1.000
    N602     N        0.09005    0.43025    0.05208    1.000
    N603     N        0.99866    0.44197    0.10919    1.000
    Si604    Si       0.00591    0.46289    0.03294    1.000
    Si605    Si       0.10781    0.46179    0.02836    1.000
    N606     N        0.08221    0.47618    0.99764    1.000
    N607     N        0.01968    0.41833    0.04338    1.000
    Si608    Si       0.09740    0.41436    0.09088    1.000
    Si609    Si       0.19984    0.47242    0.10700    1.000
    Si610    Si       0.18361    0.45261    0.01120    1.000
    N611     N        0.14228    0.44049    0.01188    1.000
    N612     N        0.20621    0.43254    0.09314    1.000
    N613     N        0.03156    0.45007    0.22626    1.000
    Si614    Si       0.05470    0.46640    0.19360    1.000
    N615     N        0.06936    0.42822    0.17579    1.000
    Si616    Si       0.00044    0.47417    0.13943    1.000
    Si617    Si       0.13270    0.46669    0.13649    1.000
    N618     N        0.19980    0.43453    0.20330    1.000
    N619     N        0.13343    0.45365    0.23619    1.000
    N620     N        0.12562    0.42751    0.12260    1.000
    Si621    Si       0.15855    0.43967    0.20173    1.000
    Si622    Si       0.22671    0.43769    0.16947    1.000
    N623     N        0.14253    0.47488    0.17776    1.000
    N624     N        0.21844    0.47321    0.14705    1.000
    N625     N        0.08174    0.45806    0.28480    1.000
    Si626    Si       0.09989    0.46628    0.32383    1.000
    Si627    Si       0.10451    0.43031    0.26018    1.000
    N628     N        0.11359    0.43248    0.34978    1.000
    N629     N        0.99794    0.41892    0.34049    1.000
    N630     N        0.22407    0.43686    0.27267    1.000
    Si631    Si       0.15734    0.44336    0.34327    1.000
    N632     N        0.20183    0.46343    0.32920    1.000
    Si633    Si       0.05987    0.42913    0.47299    1.000
    Si634    Si       0.04664    0.46926    0.41094    1.000
    N635     N        0.06710    0.46613    0.44827    1.000
    N636     N        0.00325    0.46213    0.40609    1.000
    N637     N        0.05502    0.43474    0.38458    1.000
    Si638    Si       0.01117    0.42610    0.38212    1.000
    N639     N        0.17060    0.44009    0.38661    1.000
    N640     N        0.19781    0.44929    0.44566    1.000
    Si641    Si       0.19356    0.47140    0.40661    1.000
    Si642    Si       0.17744    0.46657    0.48005    1.000
    Si643    Si       0.01445    0.44406    0.53614    1.000
    N644     N        0.10038    0.45087    0.56512    1.000
    Si645    Si       0.08431    0.44559    0.60560    1.000
    N646     N        0.03405    0.47547    0.55783    1.000
    N647     N        0.02750    0.45224    0.49560    1.000
    Si648    Si       0.15244    0.43017    0.61182    1.000
    Si649    Si       0.14121    0.45497    0.54462    1.000
    N650     N        0.17011    0.44781    0.57621    1.000
    N651     N        0.15366    0.43962    0.50524    1.000
    Si652    Si       0.21214    0.43778    0.57776    1.000
    N653     N        0.23565    0.46598    0.60508    1.000
    N654     N        0.05062    0.46901    0.62190    1.000
    Si655    Si       0.03840    0.46279    0.66410    1.000
    N656     N        0.06951    0.46704    0.69361    1.000
    Si657    Si       0.06919    0.45773    0.73666    1.000
    N658     N        0.02871    0.42080    0.66621    1.000
    Si659    Si       0.14021    0.43373    0.73226    1.000
    N660     N        0.21410    0.44449    0.69284    1.000
    N661     N        0.13845    0.46162    0.69773    1.000
    Si662    Si       0.17523    0.45503    0.67477    1.000
    N663     N        0.12184    0.45992    0.62386    1.000
    N664     N        0.16553    0.41896    0.65171    1.000
    Si665    Si       0.04393    0.43799    0.83862    1.000
    N666     N        0.08651    0.44379    0.83172    1.000
    Si667    Si       0.01350    0.43992    0.75950    1.000
    N668     N        0.01757    0.47062    0.82926    1.000
    N669     N        0.10720    0.44714    0.75592    1.000
    N670     N        0.04096    0.47423    0.76670    1.000
    Si671    Si       0.11323    0.43663    0.79749    1.000
    Si672    Si       0.12032    0.45701    0.85482    1.000
    N673     N        0.14190    0.46435    0.81542    1.000
    N674     N        0.20395    0.45591    0.85568    1.000
    Si675    Si       0.22480    0.46364    0.81881    1.000
    N676     N        0.22519    0.42657    0.79555    1.000
    N677     N        0.17715    0.44275    0.75059    1.000
    N678     N        0.03127    0.43106    0.87848    1.000
    N679     N        0.03858    0.44363    0.94958    1.000
    Si680    Si       0.07858    0.44545    0.96585    1.000
    N681     N        0.10888    0.45419    0.93649    1.000
    Si682    Si       0.00365    0.47233    0.95530    1.000
    N683     N        0.17748    0.47481    0.90755    1.000
    N684     N        0.18914    0.46929    0.97101    1.000
    N685     N        0.13574    0.42732    0.88121    1.000
    Si686    Si       0.18071    0.42634    0.88344    1.000
    Si687    Si       0.20591    0.45499    0.93447    1.000
    Si688    Si       0.03609    0.52021    0.06544    1.000
    N689     N        0.05369    0.53404    0.02860    1.000
    N690     N        0.03653    0.47642    0.06242    1.000
    Si691    Si       0.05077    0.50406    0.99671    1.000
    N692     N        0.05116    0.53302    0.10309    1.000
    N693     N        0.15893    0.48888    0.10966    1.000
    N694     N        0.22594    0.50006    0.08743    1.000
    Si695    Si       0.12464    0.50715    0.09364    1.000
    N696     N        0.12929    0.49260    0.05139    1.000
    Si697    Si       0.16901    0.51170    0.04466    1.000
    N698     N        0.20005    0.48540    0.03497    1.000
    N699     N        0.16511    0.53250    0.00408    1.000
    N700     N        0.09785    0.48698    0.12218    1.000
    N701     N        0.03819    0.48666    0.15763    1.000
    Si702    Si       0.06735    0.51122    0.13780    1.000
    N703     N        0.02080    0.51592    0.22485    1.000
    N704     N        0.08188    0.49313    0.21377    1.000
    Si705    Si       0.06246    0.52674    0.23421    1.000
    Si706    Si       0.00433    0.47980    0.24517    1.000
    N707     N        0.14061    0.52852    0.23377    1.000
    Si708    Si       0.12481    0.49167    0.21343    1.000
    Si709    Si       0.04439    0.52054    0.35549    1.000
    N710     N        0.06345    0.52538    0.27734    1.000
    N711     N        0.06420    0.48779    0.33600    1.000
    N712     N        0.99895    0.52359    0.34894    1.000
    Si713    Si       0.05103    0.48750    0.29466    1.000
    N714     N        0.00579    0.48396    0.28772    1.000
    N715     N        0.14052    0.47959    0.32073    1.000
    N716     N        0.19212    0.50235    0.27329    1.000
    Si717    Si       0.17925    0.49913    0.31501    1.000
    Si718    Si       0.23181    0.47957    0.27252    1.000
    N719     N        0.18915    0.53249    0.34117    1.000
    Si720    Si       0.99181    0.53737    0.45837    1.000
    N721     N        0.05027    0.50980    0.39641    1.000
    N722     N        0.03203    0.52270    0.46122    1.000
    N723     N        0.10000    0.53055    0.43508    1.000
    Si724    Si       0.04738    0.48917    0.48223    1.000
    Si725    Si       0.05866    0.53537    0.43084    1.000
    Si726    Si       0.20081    0.53244    0.38457    1.000
    N727     N        0.17014    0.50782    0.40670    1.000
    N728     N        0.22994    0.48872    0.38862    1.000
    N729     N        0.14786    0.49927    0.47109    1.000
    Si730    Si       0.14216    0.52188    0.43567    1.000
    Si731    Si       0.23702    0.51292    0.47326    1.000
    N732     N        0.08612    0.51646    0.57105    1.000
    Si733    Si       0.02326    0.49249    0.59657    1.000
    N734     N        0.08292    0.49106    0.50703    1.000
    N735     N        0.02445    0.53517    0.59401    1.000
    Si736    Si       0.07665    0.48192    0.54845    1.000
    N737     N        0.20516    0.53012    0.55459    1.000
    N738     N        0.14881    0.49621    0.53509    1.000
    Si739    Si       0.18242    0.51892    0.52021    1.000
    N740     N        0.14449    0.52650    0.59872    1.000
    Si741    Si       0.12128    0.51063    0.50370    1.000
    N742     N        0.20629    0.49344    0.49671    1.000
    N743     N        0.00370    0.48743    0.66996    1.000
    Si744    Si       0.00324    0.51950    0.70007    1.000
    N745     N        0.09968    0.51452    0.73046    1.000
    Si746    Si       0.10483    0.49046    0.69530    1.000
    N747     N        0.02126    0.53316    0.73774    1.000
    N748     N        0.17915    0.48527    0.64300    1.000
    N749     N        0.11688    0.51889    0.66404    1.000
    N750     N        0.17696    0.51441    0.73578    1.000
    N751     N        0.23934    0.49524    0.73991    1.000
    Si752    Si       0.13838    0.53218    0.74266    1.000
    Si753    Si       0.13844    0.49932    0.63245    1.000
    Si754    Si       0.21822    0.53496    0.73596    1.000
    Si755    Si       0.22192    0.49607    0.63538    1.000
    N756     N        0.07159    0.51374    0.81789    1.000
    Si757    Si       0.03402    0.50106    0.80045    1.000
    Si758    Si       0.08637    0.51808    0.85882    1.000
    N759     N        0.13539    0.53173    0.78627    1.000
    Si760    Si       0.16126    0.50362    0.80989    1.000
    N761     N        0.17068    0.52245    0.84876    1.000
    N762     N        0.19976    0.49201    0.79539    1.000
    Si763    Si       0.19801    0.48066    0.75458    1.000
    N764     N        0.05697    0.53297    0.96364    1.000
    N765     N        0.00494    0.50705    0.93005    1.000
    N766     N        0.06205    0.53571    0.89095    1.000
    N767     N        0.01090    0.48420    0.99591    1.000
    N768     N        0.21356    0.53299    0.95437    1.000
    N769     N        0.11533    0.49234    0.87872    1.000
    N770     N        0.23310    0.50957    0.88478    1.000
    Si771    Si       0.17870    0.51100    0.97052    1.000
    Si772    Si       0.19491    0.49469    0.87211    1.000
    Si773    Si       0.13335    0.48490    0.91758    1.000
    N774     N        0.14415    0.51785    0.94246    1.000
    Si775    Si       0.08149    0.56472    0.11084    1.000
    Si776    Si       0.05375    0.56476    0.99492    1.000
    N777     N        0.99444    0.53571    0.06027    1.000
    N778     N        0.11851    0.55085    0.09125    1.000
    N779     N        0.22589    0.59062    0.09694    1.000
    N780     N        0.13972    0.58814    0.03518    1.000
    Si781    Si       0.22648    0.54507    0.08903    1.000
    Si782    Si       0.14993    0.57613    0.07610    1.000
    N783     N        0.18073    0.54486    0.07206    1.000
    Si784    Si       0.16409    0.57511    0.00129    1.000
    N785     N        0.20589    0.59164    0.00490    1.000
    Si786    Si       0.99600    0.54937    0.21366    1.000
    N787     N        0.08481    0.54979    0.15242    1.000
    N788     N        0.08132    0.56285    0.22134    1.000
    Si789    Si       0.07860    0.57942    0.18213    1.000
    N790     N        0.00743    0.58887    0.23109    1.000
    Si791    Si       0.20976    0.58157    0.19390    1.000
    N792     N        0.21166    0.54646    0.21985    1.000
    N793     N        0.17826    0.58877    0.16316    1.000
    Si794    Si       0.11842    0.56417    0.24375    1.000
    N795     N        0.14140    0.59735    0.23314    1.000
    N796     N        0.06844    0.55339    0.34259    1.000
    Si797    Si       0.07060    0.56274    0.30077    1.000
    N798     N        0.10933    0.57183    0.28589    1.000
    N799     N        0.03685    0.58835    0.29082    1.000
    Si800    Si       0.08228    0.58872    0.36323    1.000
    N801     N        0.18077    0.56995    0.27879    1.000
    Si802    Si       0.18594    0.57175    0.32392    1.000
    N803     N        0.15250    0.59723    0.33659    1.000
    N804     N        0.21969    0.59628    0.33888    1.000
    Si805    Si       0.18167    0.53694    0.24856    1.000
    Si806    Si       0.10778    0.57441    0.43457    1.000
    N807     N        0.05992    0.57841    0.42794    1.000
    N808     N        0.11458    0.58898    0.39172    1.000
    Si809    Si       0.13944    0.57897    0.49235    1.000
    N810     N        0.18574    0.57415    0.39702    1.000
    N811     N        0.24236    0.55038    0.38276    1.000
    N812     N        0.14928    0.56286    0.44846    1.000
    Si813    Si       0.19225    0.57012    0.44170    1.000
    N814     N        0.21958    0.53735    0.44307    1.000
    N815     N        0.09184    0.57739    0.58053    1.000
    Si816    Si       0.05887    0.55046    0.57138    1.000
    Si817    Si       0.02262    0.57488    0.51284    1.000
    N818     N        0.04959    0.54633    0.53049    1.000
    Si819    Si       0.99247    0.56521    0.58298    1.000
    N820     N        0.00792    0.59239    0.55435    1.000
    N821     N        0.12077    0.55196    0.52286    1.000
    N822     N        0.17365    0.58390    0.57512    1.000
    N823     N        0.17954    0.55869    0.50367    1.000
    Si824    Si       0.18467    0.58899    0.53425    1.000
    Si825    Si       0.18361    0.54387    0.58940    1.000
    Si826    Si       0.11948    0.54352    0.56698    1.000
    N827     N        0.99661    0.55472    0.67302    1.000
    N828     N        0.06715    0.56230    0.69528    1.000
    Si829    Si       0.03399    0.57974    0.67143    1.000
    N830     N        0.04598    0.58886    0.63116    1.000
    Si831    Si       0.06508    0.54170    0.73376    1.000
    Si832    Si       0.11058    0.55913    0.68126    1.000
    N833     N        0.11097    0.58768    0.64841    1.000
    Si834    Si       0.17560    0.59121    0.71356    1.000
    N835     N        0.13991    0.56635    0.71419    1.000
    N836     N        0.21128    0.56936    0.71285    1.000
    N837     N        0.21382    0.53844    0.62071    1.000
    N838     N        0.07204    0.56584    0.77281    1.000
    N839     N        0.10195    0.56175    0.84441    1.000
    Si840    Si       0.99467    0.55603    0.76511    1.000
    Si841    Si       0.09885    0.54729    0.80297    1.000
    N842     N        0.00623    0.53483    0.80283    1.000
    N843     N        0.22286    0.56730    0.84238    1.000
    Si844    Si       0.18367    0.56143    0.86049    1.000
    N845     N        0.23467    0.54883    0.77314    1.000
    N846     N        0.16291    0.59679    0.84779    1.000
    Si847    Si       0.23619    0.57996    0.80139    1.000
    Si848    Si       0.99114    0.58663    0.95765    1.000
    Si849    Si       0.07774    0.57550    0.88038    1.000
    N850     N        0.02216    0.57994    0.92734    1.000
    Si851    Si       0.00702    0.58744    0.88603    1.000
    N852     N        0.10827    0.57568    0.91231    1.000
    N853     N        0.08571    0.59013    0.98402    1.000
    Si854    Si       0.03717    0.53723    0.92564    1.000
    N855     N        0.01052    0.57660    0.99447    1.000
    N856     N        0.14887    0.58409    0.96121    1.000
    Si857    Si       0.21502    0.57063    0.93064    1.000
    N858     N        0.18097    0.56110    0.90299    1.000
    Si859    Si       0.14665    0.55711    0.92649    1.000
    Si860    Si       0.02694    0.62699    0.03541    1.000
    Si861    Si       0.07633    0.62847    0.07507    1.000
    Si862    Si       0.10496    0.60918    0.01882    1.000
    N863     N        0.06660    0.60612    0.03975    1.000
    N864     N        0.06416    0.60271    0.10783    1.000
    N865     N        0.99452    0.60438    0.05052    1.000
    N866     N        0.02155    0.65372    0.99994    1.000
    N867     N        0.11064    0.65019    0.00187    1.000
    N868     N        0.11347    0.64994    0.06574    1.000
    N869     N        0.15974    0.60848    0.10187    1.000
    Si870    Si       0.14780    0.64803    0.09337    1.000
    Si871    Si       0.00926    0.61564    0.19797    1.000
    Si872    Si       0.03209    0.61449    0.13133    1.000
    N873     N        0.11101    0.60849    0.17572    1.000
    N874     N        0.03902    0.59697    0.17136    1.000
    Si875    Si       0.22976    0.64312    0.23718    1.000
    Si876    Si       0.11528    0.65026    0.16582    1.000
    Si877    Si       0.19606    0.60470    0.12556    1.000
    Si878    Si       0.15232    0.61073    0.19200    1.000
    N879     N        0.20961    0.64530    0.13842    1.000
    N880     N        0.19791    0.61421    0.22089    1.000
    N881     N        0.15604    0.65449    0.18596    1.000
    N882     N        0.09091    0.61855    0.33257    1.000
    Si883    Si       0.00335    0.60536    0.27145    1.000
    Si884    Si       0.07212    0.64850    0.35738    1.000
    N885     N        0.01403    0.65036    0.27199    1.000
    Si886    Si       0.12392    0.60784    0.30722    1.000
    N887     N        0.21037    0.63171    0.27745    1.000
    N888     N        0.14499    0.63893    0.28363    1.000
    Si889    Si       0.17394    0.61123    0.25967    1.000
    Si890    Si       0.98736    0.65330    0.46128    1.000
    N891     N        0.04977    0.61613    0.37606    1.000
    N892     N        0.99794    0.62282    0.43070    1.000
    Si893    Si       0.07734    0.62883    0.48181    1.000
    N894     N        0.05792    0.64238    0.44378    1.000
    Si895    Si       0.03851    0.61318    0.41875    1.000
    N896     N        0.10475    0.59909    0.47103    1.000
    N897     N        0.16482    0.63907    0.39813    1.000
    N898     N        0.23194    0.63186    0.39477    1.000
    Si899    Si       0.15604    0.60109    0.38022    1.000
    Si900    Si       0.23361    0.61840    0.48903    1.000
    N901     N        0.20810    0.60971    0.45498    1.000
    Si902    Si       0.20018    0.64070    0.42442    1.000
    Si903    Si       0.02013    0.62904    0.53298    1.000
    N904     N        0.08050    0.64496    0.61370    1.000
    N905     N        0.04500    0.61021    0.50229    1.000
    Si906    Si       0.08229    0.59979    0.61670    1.000
    N907     N        0.04591    0.65412    0.55612    1.000
    N908     N        0.99359    0.64814    0.50486    1.000
    N909     N        0.15366    0.61382    0.51473    1.000
    Si910    Si       0.18223    0.61928    0.59555    1.000
    Si911    Si       0.22733    0.64635    0.54557    1.000
    N912     N        0.22283    0.60575    0.52956    1.000
    N913     N        0.18723    0.64827    0.56264    1.000
    Si914    Si       0.15085    0.65217    0.53832    1.000
    N915     N        0.14831    0.63485    0.61855    1.000
    N916     N        0.00351    0.64950    0.62438    1.000
    N917     N        0.02757    0.61937    0.69029    1.000
    Si918    Si       0.03031    0.62281    0.73364    1.000
    N919     N        0.07327    0.62864    0.74108    1.000
    N920     N        0.11009    0.64415    0.68352    1.000
    Si921    Si       0.01735    0.65331    0.66607    1.000
    Si922    Si       0.20722    0.63318    0.65537    1.000
    N923     N        0.21872    0.61041    0.61861    1.000
    N924     N        0.17504    0.61458    0.67789    1.000
    Si925    Si       0.13600    0.62077    0.65946    1.000
    Si926    Si       0.05361    0.63201    0.84655    1.000
    N927     N        0.05774    0.63524    0.80439    1.000
    Si928    Si       0.08088    0.60928    0.77813    1.000
    N929     N        0.09512    0.62723    0.86134    1.000
    N930     N        0.00428    0.59797    0.75629    1.000
    N931     N        0.04112    0.59161    0.86118    1.000
    N932     N        0.11934    0.60410    0.79564    1.000
    N933     N        0.21214    0.64566    0.86727    1.000
    Si934    Si       0.14718    0.63266    0.78057    1.000
    Si935    Si       0.19149    0.62778    0.83446    1.000
    N936     N        0.21962    0.62158    0.80115    1.000
    Si937    Si       0.21739    0.63182    0.75869    1.000
    N938     N        0.17588    0.62026    0.75026    1.000
    Si939    Si       0.12154    0.60069    0.83977    1.000
    N940     N        0.16032    0.65327    0.81679    1.000
    N941     N        0.10649    0.63758    0.93155    1.000
    Si942    Si       0.10810    0.59925    0.94804    1.000
    Si943    Si       0.20954    0.64457    0.91192    1.000
    N944     N        0.20936    0.61320    0.94115    1.000
    Si945    Si       0.21312    0.62811    0.98177    1.000
    Si946    Si       0.01840    0.67442    0.09742    1.000
    N947     N        0.07841    0.70179    0.03660    1.000
    Si948    Si       0.04868    0.68823    0.00814    1.000
    N949     N        0.04175    0.65549    0.06689    1.000
    Si950    Si       0.11651    0.67928    0.03492    1.000
    Si951    Si       0.19145    0.68410    0.03731    1.000
    Si952    Si       0.20918    0.68169    0.11118    1.000
    N953     N        0.18263    0.66746    0.07777    1.000
    N954     N        0.15111    0.70477    0.02983    1.000
    N955     N        0.23483    0.69440    0.03447    1.000
    N956     N        0.03350    0.65768    0.13343    1.000
    Si957    Si       0.04287    0.67675    0.17094    1.000
    Si958    Si       0.00253    0.67534    0.23625    1.000
    N959     N        0.08569    0.67644    0.18057    1.000
    N960     N        0.02137    0.65730    0.20179    1.000
    Si961    Si       0.10287    0.70924    0.20409    1.000
    Si962    Si       0.14240    0.71087    0.13819    1.000
    N963     N        0.12807    0.66770    0.12838    1.000
    N964     N        0.12461    0.70596    0.24146    1.000
    Si965    Si       0.19403    0.66897    0.17077    1.000
    N966     N        0.18526    0.70276    0.14234    1.000
    Si967    Si       0.21901    0.70742    0.23327    1.000
    N968     N        0.22303    0.67475    0.20381    1.000
    Si969    Si       0.03594    0.67712    0.30141    1.000
    N970     N        0.04321    0.67732    0.34432    1.000
    N971     N        0.07518    0.68269    0.28543    1.000
    Si972    Si       0.10414    0.71336    0.27909    1.000
    N973     N        0.19576    0.68119    0.32201    1.000
    Si974    Si       0.16432    0.67851    0.29211    1.000
    N975     N        0.18675    0.69881    0.26146    1.000
    Si976    Si       0.18948    0.70650    0.35617    1.000
    Si977    Si       0.23655    0.69045    0.30158    1.000
    N978     N        0.13929    0.71266    0.30563    1.000
    Si979    Si       0.04834    0.71308    0.37178    1.000
    Si980    Si       0.08155    0.67361    0.42662    1.000
    N981     N        0.99934    0.69816    0.46514    1.000
    N982     N        0.05252    0.70376    0.41402    1.000
    N983     N        0.09822    0.66450    0.38653    1.000
    Si984    Si       0.22141    0.71306    0.42316    1.000
    Si985    Si       0.12699    0.68909    0.48178    1.000
    N986     N        0.20269    0.68058    0.44444    1.000
    Si987    Si       0.20193    0.68735    0.48680    1.000
    N988     N        0.12300    0.67895    0.44002    1.000
    N989     N        0.22308    0.69726    0.38160    1.000
    Si990    Si       0.13844    0.67353    0.40068    1.000
    N991     N        0.14902    0.70752    0.37486    1.000
    Si992    Si       0.08385    0.67473    0.54190    1.000
    N993     N        0.04313    0.70610    0.59859    1.000
    N994     N        0.09744    0.66258    0.50127    1.000
    Si995    Si       0.04082    0.66101    0.60241    1.000
    Si996    Si       0.98840    0.69162    0.50841    1.000
    Si997    Si       0.11995    0.66364    0.60686    1.000
    N998     N        0.12055    0.66653    0.56426    1.000
    N999     N        0.16190    0.67864    0.50295    1.000
    N1000    N        0.23377    0.66172    0.50411    1.000
    N1001    N        0.09360    0.69867    0.70924    1.000
    N1002    N        0.05082    0.68038    0.65760    1.000
    Si1003   Si       0.09319    0.68260    0.66893    1.000
    Si1004   Si       0.10026    0.65690    0.72462    1.000
    N1005    N        0.12602    0.69192    0.64039    1.000
    Si1006   Si       0.20364    0.70532    0.72180    1.000
    N1007    N        0.22441    0.67178    0.74167    1.000
    N1008    N        0.16510    0.69940    0.70492    1.000
    Si1009   Si       0.23254    0.70083    0.65175    1.000
    Si1010   Si       0.16372    0.70250    0.65916    1.000
    N1011    N        0.19853    0.67495    0.65014    1.000
    Si1012   Si       0.04010    0.67090    0.78665    1.000
    N1013    N        0.01729    0.69537    0.81209    1.000
    N1014    N        0.06940    0.70008    0.76980    1.000
    Si1015   Si       0.02967    0.70352    0.85298    1.000
    Si1016   Si       0.11144    0.69532    0.78494    1.000
    N1017    N        0.11040    0.70138    0.82595    1.000
    N1018    N        0.03345    0.66265    0.87039    1.000
    N1019    N        0.01186    0.65798    0.75447    1.000
    Si1020   Si       0.14867    0.68837    0.84026    1.000
    N1021    N        0.12242    0.66129    0.76170    1.000
    N1022    N        0.01270    0.67354    0.93262    1.000
    N1023    N        0.08590    0.69396    0.90690    1.000
    Si1024   Si       0.10255    0.67092    0.96357    1.000
    N1025    N        0.06585    0.69418    0.96888    1.000
    Si1026   Si       0.04726    0.69887    0.93018    1.000
    Si1027   Si       0.99048    0.66211    0.96989    1.000
    Si1028   Si       0.99305    0.66476    0.89398    1.000
    Si1029   Si       0.10594    0.65797    0.89169    1.000
    N1030    N        0.14248    0.67863    0.88246    1.000
    Si1031   Si       0.23251    0.69184    0.99009    1.000
    N1032    N        0.13490    0.69871    0.95152    1.000
    Si1033   Si       0.17422    0.69110    0.96751    1.000
    N1034    N        0.19723    0.68141    0.93280    1.000
    N1035    N        0.19051    0.66083    0.99828    1.000
    Si1036   Si       0.04688    0.72567    0.05671    1.000
    N1037    N        0.06168    0.76617    0.05510    1.000
    N1038    N        0.01995    0.71696    0.02227    1.000
    N1039    N        0.02816    0.71720    0.09506    1.000
    N1040    N        0.13196    0.73453    0.10376    1.000
    Si1041   Si       0.16368    0.74526    0.02341    1.000
    N1042    N        0.19927    0.75269    0.04957    1.000
    Si1043   Si       0.23508    0.73108    0.05897    1.000
    N1044    N        0.13224    0.77039    0.04339    1.000
    Si1045   Si       0.03117    0.74165    0.20323    1.000
    Si1046   Si       0.01577    0.74035    0.12922    1.000
    N1047    N        0.07385    0.74258    0.21146    1.000
    N1048    N        0.02946    0.71770    0.16533    1.000
    N1049    N        0.01394    0.71671    0.23133    1.000
    N1050    N        0.19086    0.74207    0.21817    1.000
    N1051    N        0.12516    0.72718    0.17163    1.000
    Si1052   Si       0.12125    0.76941    0.18148    1.000
    Si1053   Si       0.15917    0.73224    0.24787    1.000
    Si1054   Si       0.00846    0.74374    0.26484    1.000
    N1055    N        0.09162    0.75476    0.28473    1.000
    N1056    N        0.08133    0.73724    0.35807    1.000
    Si1057   Si       0.08792    0.76626    0.32844    1.000
    Si1058   Si       0.99185    0.73464    0.33144    1.000
    N1059    N        0.01435    0.71459    0.29842    1.000
    N1060    N        0.00921    0.73399    0.36922    1.000
    Si1061   Si       0.23186    0.76260    0.33839    1.000
    N1062    N        0.19228    0.74633    0.33989    1.000
    Si1063   Si       0.15876    0.75350    0.31599    1.000
    N1064    N        0.16536    0.76646    0.27517    1.000
    N1065    N        0.12880    0.77263    0.34222    1.000
    N1066    N        0.01883    0.76230    0.42879    1.000
    N1067    N        0.05281    0.73964    0.47693    1.000
    Si1068   Si       0.02792    0.72248    0.44451    1.000
    Si1069   Si       0.12275    0.74091    0.37401    1.000
    N1070    N        0.13587    0.76084    0.41012    1.000
    N1071    N        0.11946    0.73085    0.48094    1.000
    N1072    N        0.20870    0.75305    0.41743    1.000
    Si1073   Si       0.12179    0.76459    0.45356    1.000
    Si1074   Si       0.03701    0.72673    0.56126    1.000
    Si1075   Si       0.08517    0.74165    0.50542    1.000
    N1076    N        0.99871    0.71776    0.54265    1.000
    N1077    N        0.03805    0.77025    0.57363    1.000
    N1078    N        0.07218    0.71725    0.53740    1.000
    Si1079   Si       0.21326    0.75779    0.52452    1.000
    N1080    N        0.17069    0.76651    0.52791    1.000
    N1081    N        0.22945    0.73203    0.62216    1.000
    N1082    N        0.22114    0.72244    0.50002    1.000
    N1083    N        0.06513    0.75204    0.65416    1.000
    N1084    N        0.00132    0.73097    0.64658    1.000
    N1085    N        0.06639    0.76282    0.73793    1.000
    Si1086   Si       0.06222    0.71938    0.73329    1.000
    Si1087   Si       0.04214    0.72058    0.64002    1.000
    Si1088   Si       0.99600    0.73518    0.68999    1.000
    N1089    N        0.02024    0.71785    0.72150    1.000
    Si1090   Si       0.13190    0.72043    0.72435    1.000
    N1091    N        0.12457    0.75838    0.70496    1.000
    Si1092   Si       0.20658    0.76571    0.63864    1.000
    N1093    N        0.23221    0.72147    0.68935    1.000
    N1094    N        0.17470    0.74485    0.65828    1.000
    N1095    N        0.05450    0.73730    0.85819    1.000
    Si1096   Si       0.09489    0.73827    0.84254    1.000
    N1097    N        0.10287    0.77238    0.81810    1.000
    N1098    N        0.20281    0.73884    0.75007    1.000
    N1099    N        0.13688    0.72620    0.76814    1.000
    Si1100   Si       0.17630    0.73948    0.78548    1.000
    Si1101   Si       0.16334    0.75837    0.84583    1.000
    N1102    N        0.17648    0.72143    0.82501    1.000
    N1103    N        0.23742    0.76840    0.79686    1.000
    Si1104   Si       0.07521    0.76368    0.95262    1.000
    N1105    N        0.04422    0.74255    0.93084    1.000
    Si1106   Si       0.02882    0.75049    0.89155    1.000
    N1107    N        0.99972    0.71777    0.88253    1.000
    N1108    N        0.11497    0.75606    0.93077    1.000
    N1109    N        0.12960    0.74246    0.87171    1.000
    N1110    N        0.19877    0.72350    0.98702    1.000
    Si1111   Si       0.20750    0.76310    0.97197    1.000
    Si1112   Si       0.21968    0.71772    0.92110    1.000
    N1113    N        0.20309    0.75596    0.92734    1.000
    Si1114   Si       0.12464    0.71734    0.91267    1.000
    N1115    N        0.09517    0.79831    0.09491    1.000
    Si1116   Si       0.05325    0.79226    0.08937    1.000
    N1117    N        0.09291    0.82452    0.02102    1.000
    Si1118   Si       0.09272    0.78183    0.02951    1.000
    N1119    N        0.02829    0.80866    0.00413    1.000
    N1120    N        0.03151    0.82736    0.07597    1.000
    Si1121   Si       0.19684    0.81297    0.00509    1.000
    Si1122   Si       0.19739    0.79061    0.07112    1.000
    N1123    N        0.16363    0.79470    0.09985    1.000
    N1124    N        0.23109    0.78504    0.09864    1.000
    N1125    N        0.19442    0.82625    0.04581    1.000
    Si1126   Si       0.12953    0.77241    0.08635    1.000
    N1127    N        0.03666    0.77796    0.12652    1.000
    N1128    N        0.07754    0.81748    0.24045    1.000
    N1129    N        0.08982    0.79633    0.16738    1.000
    Si1130   Si       0.03545    0.80958    0.22406    1.000
    Si1131   Si       0.02827    0.80771    0.15730    1.000
    N1132    N        0.01923    0.78077    0.19086    1.000
    N1133    N        0.15984    0.78350    0.16629    1.000
    Si1134   Si       0.19203    0.77637    0.19509    1.000
    N1135    N        0.23117    0.77724    0.17777    1.000
    N1136    N        0.12764    0.77204    0.22607    1.000
    Si1137   Si       0.16407    0.81392    0.13730    1.000
    N1138    N        0.18924    0.80812    0.22711    1.000
    Si1139   Si       0.23424    0.80402    0.13943    1.000
    N1140    N        0.20356    0.83253    0.14893    1.000
    N1141    N        0.06046    0.80134    0.33282    1.000
    Si1142   Si       0.01752    0.80781    0.32850    1.000
    N1143    N        0.99525    0.77423    0.31555    1.000
    N1144    N        0.03585    0.77472    0.25337    1.000
    Si1145   Si       0.08294    0.77349    0.24504    1.000
    Si1146   Si       0.14933    0.80942    0.35750    1.000
    N1147    N        0.23158    0.79775    0.31330    1.000
    N1148    N        0.16531    0.82826    0.32044    1.000
    Si1149   Si       0.15240    0.79967    0.25021    1.000
    Si1150   Si       0.20986    0.83478    0.31556    1.000
    N1151    N        0.00308    0.81998    0.36916    1.000
    N1152    N        0.03224    0.80495    0.48839    1.000
    Si1153   Si       0.04605    0.77868    0.45648    1.000
    N1154    N        0.08772    0.79167    0.45385    1.000
    N1155    N        0.17973    0.81036    0.39127    1.000
    N1156    N        0.15964    0.78434    0.46311    1.000
    Si1157   Si       0.17507    0.77906    0.42002    1.000
    Si1158   Si       0.07122    0.79880    0.58009    1.000
    Si1159   Si       0.99739    0.78521    0.58084    1.000
    Si1160   Si       0.06970    0.81475    0.50893    1.000
    N1161    N        0.09675    0.78078    0.51844    1.000
    N1162    N        0.06450    0.82869    0.54981    1.000
    N1163    N        0.99436    0.81049    0.61668    1.000
    N1164    N        0.06238    0.81634    0.61902    1.000
    N1165    N        0.11490    0.79183    0.57992    1.000
    Si1166   Si       0.13387    0.78828    0.53950    1.000
    Si1167   Si       0.14162    0.80492    0.60994    1.000
    N1168    N        0.22216    0.79854    0.50986    1.000
    N1169    N        0.15257    0.82532    0.53123    1.000
    N1170    N        0.18487    0.79228    0.61173    1.000
    Si1171   Si       0.17852    0.80417    0.49742    1.000
    Si1172   Si       0.09877    0.78636    0.72256    1.000
    Si1173   Si       0.02807    0.78427    0.73220    1.000
    N1174    N        0.08123    0.81210    0.69041    1.000
    Si1175   Si       0.07817    0.79231    0.65189    1.000
    N1176    N        0.99851    0.77698    0.70129    1.000
    N1177    N        0.02999    0.82793    0.73023    1.000
    N1178    N        0.16763    0.80873    0.69747    1.000
    Si1179   Si       0.16409    0.81901    0.73868    1.000
    N1180    N        0.12231    0.79050    0.64519    1.000
    Si1181   Si       0.14879    0.77682    0.67503    1.000
    Si1182   Si       0.09006    0.80670    0.84084    1.000
    Si1183   Si       0.01479    0.81309    0.85395    1.000
    N1184    N        0.05017    0.81699    0.83033    1.000
    N1185    N        0.00914    0.77754    0.76917    1.000
    Si1186   Si       0.20868    0.80243    0.80185    1.000
    N1187    N        0.20310    0.81792    0.76014    1.000
    N1188    N        0.12512    0.80586    0.75221    1.000
    Si1189   Si       0.13049    0.79484    0.79458    1.000
    N1190    N        0.16936    0.77928    0.80639    1.000
    Si1191   Si       0.15833    0.82929    0.85171    1.000
    N1192    N        0.12511    0.83084    0.82172    1.000
    N1193    N        0.19538    0.83282    0.83279    1.000
    Si1194   Si       0.06562    0.82630    0.98906    1.000
    N1195    N        0.09464    0.80421    0.88299    1.000
    N1196    N        0.06825    0.80692    0.94860    1.000
    N1197    N        0.01993    0.79309    0.89204    1.000
    Si1198   Si       0.09069    0.82845    0.91861    1.000
    N1199    N        0.09685    0.76827    0.98865    1.000
    N1200    N        0.13141    0.81598    0.93421    1.000
    N1201    N        0.16933    0.78069    0.98814    1.000
    Si1202   Si       0.12889    0.78066    0.89699    1.000
    Si1203   Si       0.13190    0.78376    0.96602    1.000
    N1204    N        0.16612    0.79155    0.87491    1.000
    Si1205   Si       0.20005    0.79156    0.90256    1.000
    N1206    N        0.23393    0.79254    0.99002    1.000
    N1207    N        0.19885    0.83341    0.92318    1.000
    Si1208   Si       0.02476    0.85405    0.10977    1.000
    N1209    N        0.01704    0.87685    0.02946    1.000
    Si1210   Si       0.10223    0.83656    0.11119    1.000
    Si1211   Si       0.01220    0.83187    0.03556    1.000
    Si1212   Si       0.11321    0.85860    0.03933    1.000
    N1213    N        0.11641    0.86412    0.08118    1.000
    Si1214   Si       0.18400    0.86895    0.05008    1.000
    N1215    N        0.15014    0.88146    0.02309    1.000
    N1216    N        0.18143    0.88200    0.09266    1.000
    N1217    N        0.06427    0.84838    0.12987    1.000
    Si1218   Si       0.00943    0.86419    0.20194    1.000
    Si1219   Si       0.10359    0.85303    0.23963    1.000
    Si1220   Si       0.08144    0.83857    0.17150    1.000
    N1221    N        0.10598    0.86147    0.19600    1.000
    N1222    N        0.04078    0.83807    0.18702    1.000
    N1223    N        0.00306    0.83665    0.23769    1.000
    N1224    N        0.99644    0.83171    0.13478    1.000
    Si1225   Si       0.22311    0.83221    0.23704    1.000
    Si1226   Si       0.20771    0.86938    0.17412    1.000
    N1227    N        0.23687    0.85981    0.20471    1.000
    N1228    N        0.17260    0.88330    0.19344    1.000
    N1229    N        0.13153    0.84243    0.14120    1.000
    Si1230   Si       0.13727    0.87496    0.16909    1.000
    N1231    N        0.05144    0.86597    0.35205    1.000
    N1232    N        0.09881    0.86016    0.30649    1.000
    N1233    N        0.00883    0.84474    0.30566    1.000
    Si1234   Si       0.02354    0.88134    0.32235    1.000
    Si1235   Si       0.08238    0.83860    0.34068    1.000
    N1236    N        0.11367    0.83559    0.36959    1.000
    Si1237   Si       0.14310    0.85687    0.29843    1.000
    N1238    N        0.21654    0.85772    0.27583    1.000
    N1239    N        0.20948    0.86016    0.35164    1.000
    N1240    N        0.13835    0.83868    0.25982    1.000
    N1241    N        0.99612    0.86599    0.46141    1.000
    Si1242   Si       0.02858    0.85106    0.38621    1.000
    N1243    N        0.08153    0.84948    0.48657    1.000
    N1244    N        0.00200    0.88343    0.39755    1.000
    N1245    N        0.05450    0.83711    0.41796    1.000
    Si1246   Si       0.08683    0.83272    0.44679    1.000
    Si1247   Si       0.99856    0.83154    0.48995    1.000
    N1248    N        0.16315    0.88049    0.38887    1.000
    N1249    N        0.18468    0.84188    0.47416    1.000
    Si1250   Si       0.15222    0.87176    0.46398    1.000
    N1251    N        0.12371    0.85204    0.43687    1.000
    Si1252   Si       0.19733    0.85063    0.39122    1.000
    N1253    N        0.22765    0.85783    0.42195    1.000
    Si1254   Si       0.12196    0.86718    0.39633    1.000
    Si1255   Si       0.22610    0.83588    0.45912    1.000
    N1256    N        0.01235    0.86295    0.52244    1.000
    N1257    N        0.01894    0.86587    0.58769    1.000
    Si1258   Si       0.04541    0.86762    0.55264    1.000
    Si1259   Si       0.98715    0.85329    0.55855    1.000
    Si1260   Si       0.08481    0.89166    0.49651    1.000
    Si1261   Si       0.16493    0.85565    0.55877    1.000
    N1262    N        0.15259    0.84691    0.59952    1.000
    N1263    N        0.20581    0.84403    0.56860    1.000
    Si1264   Si       0.20071    0.83463    0.61067    1.000
    Si1265   Si       0.02712    0.84094    0.62341    1.000
    N1266    N        0.03159    0.86294    0.66102    1.000
    Si1267   Si       0.05118    0.84487    0.69560    1.000
    N1268    N        0.07360    0.87666    0.71585    1.000
    N1269    N        0.13487    0.87684    0.66741    1.000
    Si1270   Si       0.17225    0.85362    0.68834    1.000
    Si1271   Si       0.23322    0.84557    0.74467    1.000
    N1272    N        0.21607    0.85854    0.70550    1.000
    Si1273   Si       0.23543    0.85987    0.66530    1.000
    Si1274   Si       0.15519    0.88157    0.62954    1.000
    N1275    N        0.15839    0.86301    0.73045    1.000
    N1276    N        0.19137    0.85344    0.64964    1.000
    N1277    N        0.00741    0.85901    0.85213    1.000
    N1278    N        0.03497    0.87045    0.78425    1.000
    Si1279   Si       0.00613    0.85146    0.75847    1.000
    Si1280   Si       0.04179    0.86043    0.82433    1.000
    N1281    N        0.07884    0.87771    0.84068    1.000
    N1282    N        0.10536    0.87894    0.77511    1.000
    Si1283   Si       0.06649    0.88799    0.75683    1.000
    Si1284   Si       0.11372    0.87275    0.81620    1.000
    N1285    N        0.22470    0.88370    0.76280    1.000
    Si1286   Si       0.23233    0.83077    0.85346    1.000
    Si1287   Si       0.04443    0.87343    0.94075    1.000
    N1288    N        0.07194    0.86670    0.90849    1.000
    N1289    N        0.05981    0.86864    0.97887    1.000
    N1290    N        0.00630    0.85046    0.93870    1.000
    N1291    N        0.15014    0.85849    0.88146    1.000
    Si1292   Si       0.22414    0.85718    0.94883    1.000
    N1293    N        0.20075    0.85277    0.98681    1.000
    Si1294   Si       0.17619    0.88642    0.98657    1.000
    Si1295   Si       0.15826    0.84851    0.92185    1.000
    N1296    N        0.16010    0.88403    0.94597    1.000
    Si1297   Si       0.01688    0.93436    0.11251    1.000
    Si1298   Si       0.04993    0.89887    0.01161    1.000
    N1299    N        0.04728    0.94225    0.00991    1.000
    Si1300   Si       0.99096    0.89789    0.05890    1.000
    N1301    N        0.08710    0.89552    0.03312    1.000
    N1302    N        0.01027    0.89482    0.09642    1.000
    N1303    N        0.98890    0.93988    0.04717    1.000
    Si1304   Si       0.12417    0.91922    0.02980    1.000
    Si1305   Si       0.21881    0.90014    0.10640    1.000
    N1306    N        0.13761    0.92990    0.07086    1.000
    Si1307   Si       0.20924    0.93736    0.02290    1.000
    N1308    N        0.22835    0.94228    0.09874    1.000
    Si1309   Si       0.14029    0.89522    0.09873    1.000
    N1310    N        0.21399    0.89550    0.03657    1.000
    N1311    N        0.08950    0.93541    0.18858    1.000
    Si1312   Si       0.09284    0.93291    0.14604    1.000
    Si1313   Si       0.04524    0.93144    0.18937    1.000
    N1314    N        0.04708    0.92859    0.14421    1.000
    N1315    N        0.02680    0.90169    0.21364    1.000
    Si1316   Si       0.10509    0.93044    0.22783    1.000
    Si1317   Si       0.17944    0.91890    0.21776    1.000
    N1318    N        0.21293    0.93958    0.19880    1.000
    N1319    N        0.12570    0.90596    0.13923    1.000
    N1320    N        0.22486    0.89858    0.14877    1.000
    N1321    N        0.14424    0.94415    0.22424    1.000
    N1322    N        0.10024    0.93365    0.31039    1.000
    Si1323   Si       0.01672    0.90770    0.25493    1.000
    N1324    N        0.99882    0.91303    0.33698    1.000
    N1325    N        0.04173    0.90434    0.28998    1.000
    Si1326   Si       0.08383    0.89793    0.29259    1.000
    N1327    N        0.09805    0.89484    0.25113    1.000
    N1328    N        0.99781    0.94841    0.26947    1.000
    N1329    N        0.21980    0.91565    0.32283    1.000
    Si1330   Si       0.14453    0.93636    0.31429    1.000
    N1331    N        0.20030    0.92886    0.25823    1.000
    N1332    N        0.15738    0.93988    0.35441    1.000
    Si1333   Si       0.18428    0.90247    0.35288    1.000
    Si1334   Si       0.20185    0.89723    0.28807    1.000
    N1335    N        0.16186    0.89596    0.30674    1.000
    Si1336   Si       0.00370    0.92186    0.37944    1.000
    N1337    N        0.09674    0.90181    0.39547    1.000
    N1338    N        0.04752    0.91239    0.48408    1.000
    Si1339   Si       0.07989    0.94005    0.39476    1.000
    N1340    N        0.04023    0.94530    0.37972    1.000
    Si1341   Si       0.00948    0.89246    0.49182    1.000
    N1342    N        0.17915    0.90533    0.45114    1.000
    Si1343   Si       0.17230    0.91997    0.41217    1.000
    N1344    N        0.12593    0.89723    0.48942    1.000
    N1345    N        0.20833    0.91943    0.38713    1.000
    Si1346   Si       0.20337    0.93132    0.47491    1.000
    Si1347   Si       0.10344    0.91362    0.56942    1.000
    N1348    N        0.06885    0.92596    0.59233    1.000
    Si1349   Si       0.02799    0.94121    0.59601    1.000
    N1350    N        0.99450    0.92526    0.57212    1.000
    N1351    N        0.08031    0.89123    0.54029    1.000
    Si1352   Si       0.16748    0.94291    0.59720    1.000
    N1353    N        0.12712    0.91313    0.60572    1.000
    Si1354   Si       0.21346    0.91324    0.54689    1.000
    Si1355   Si       0.14582    0.92225    0.51621    1.000
    N1356    N        0.22848    0.91914    0.50717    1.000
    N1357    N        0.17244    0.89590    0.54504    1.000
    N1358    N        0.12726    0.94419    0.54861    1.000
    N1359    N        0.20225    0.94804    0.57196    1.000
    Si1360   Si       0.10076    0.89730    0.68831    1.000
    Si1361   Si       0.09493    0.93573    0.62789    1.000
    N1362    N        0.07436    0.91633    0.66013    1.000
    N1363    N        0.01457    0.93454    0.69760    1.000
    N1364    N        0.00986    0.93272    0.63443    1.000
    Si1365   Si       0.03199    0.90744    0.66304    1.000
    Si1366   Si       0.19596    0.89378    0.73235    1.000
    N1367    N        0.12319    0.92303    0.71577    1.000
    N1368    N        0.18306    0.91482    0.62818    1.000
    Si1369   Si       0.21027    0.92472    0.65862    1.000
    N1370    N        0.19262    0.92430    0.69975    1.000
    N1371    N        0.01343    0.93440    0.82007    1.000
    N1372    N        0.05657    0.92974    0.75459    1.000
    Si1373   Si       0.03888    0.94845    0.78868    1.000
    N1374    N        0.14443    0.89819    0.82811    1.000
    N1375    N        0.20764    0.92831    0.81957    1.000
    N1376    N        0.16973    0.91597    0.76276    1.000
    Si1377   Si       0.16597    0.93001    0.80377    1.000
    Si1378   Si       0.21802    0.94070    0.86022    1.000
    Si1379   Si       0.13417    0.89346    0.74675    1.000
    Si1380   Si       0.15010    0.90073    0.86950    1.000
    Si1381   Si       0.07681    0.89865    0.88064    1.000
    N1382    N        0.04957    0.93131    0.88206    1.000
    N1383    N        0.02397    0.91106    0.94506    1.000
    Si1384   Si       0.03947    0.94341    0.92336    1.000
    N1385    N        0.07846    0.94630    0.94120    1.000
    N1386    N        0.18175    0.92966    0.99036    1.000
    N1387    N        0.11457    0.91748    0.88650    1.000
    N1388    N        0.22519    0.89949    0.94796    1.000
    N1389    N        0.18755    0.92049    0.88489    1.000
    Si1390   Si       0.18619    0.92356    0.92978    1.000
    Si1391   Si       0.02574    0.96429    0.04041    1.000
    Si1392   Si       0.06468    0.98489    0.10640    1.000
    N1393    N        0.04086    0.95763    0.08333    1.000
    N1394    N        0.10135    0.96806    0.11945    1.000
    N1395    N        0.01616    0.00664    0.04565    1.000
    N1396    N        0.12737    0.99702    0.05344    1.000
    Si1397   Si       0.13433    0.96950    0.08792    1.000
    N1398    N        0.19652    0.97227    0.04369    1.000
    Si1399   Si       0.20785    0.97827    0.08557    1.000
    N1400    N        0.17058    0.98739    0.10470    1.000
    Si1401   Si       0.16609    0.00249    0.03187    1.000
    N1402    N        0.11597    0.94840    0.00002    1.000
    N1403    N        0.03307    0.97218    0.20539    1.000
    Si1404   Si       0.07213    0.99249    0.22365    1.000
    N1405    N        0.02856    0.00309    0.12766    1.000
    Si1406   Si       0.00889    0.98157    0.24349    1.000
    Si1407   Si       0.02829    0.00571    0.17316    1.000
    Si1408   Si       0.15402    0.98518    0.20890    1.000
    Si1409   Si       0.21877    0.98439    0.19536    1.000
    N1410    N        0.18889    0.99781    0.23521    1.000
    N1411    N        0.11552    0.00534    0.20963    1.000
    N1412    N        0.17965    0.99199    0.17454    1.000
    Si1413   Si       0.08015    0.96694    0.29283    1.000
    N1414    N        0.04476    0.97546    0.31677    1.000
    Si1415   Si       0.03137    0.98388    0.36086    1.000
    N1416    N        0.08144    0.96019    0.25021    1.000
    N1417    N        0.99097    0.97669    0.34630    1.000
    Si1418   Si       0.01014    0.94946    0.31496    1.000
    Si1419   Si       0.19155    0.97075    0.26963    1.000
    N1420    N        0.15503    0.97292    0.29281    1.000
    N1421    N        0.22364    0.98474    0.29598    1.000
    Si1422   Si       0.13516    0.00949    0.30567    1.000
    N1423    N        0.10484    0.97260    0.38192    1.000
    Si1424   Si       0.99307    0.98569    0.41684    1.000
    N1425    N        0.00657    0.97084    0.45677    1.000
    N1426    N        0.07876    0.95565    0.43545    1.000
    Si1427   Si       0.04654    0.95070    0.46478    1.000
    Si1428   Si       0.01181    0.99376    0.49585    1.000
    N1429    N        0.02299    0.00918    0.39550    1.000
    N1430    N        0.05470    0.98356    0.49469    1.000
    Si1431   Si       0.11610    0.97804    0.43733    1.000
    N1432    N        0.15391    0.96028    0.41997    1.000
    N1433    N        0.18380    0.00321    0.38873    1.000
    N1434    N        0.22113    0.96068    0.44850    1.000
    Si1435   Si       0.16001    0.99079    0.49271    1.000
    N1436    N        0.11855    0.98495    0.47994    1.000
    Si1437   Si       0.18916    0.98592    0.42885    1.000
    Si1438   Si       0.14906    0.97665    0.37464    1.000
    N1439    N        0.03663    0.98351    0.59192    1.000
    N1440    N        0.99771    0.98375    0.53435    1.000
    Si1441   Si       0.01125    0.00822    0.56731    1.000
    Si1442   Si       0.08868    0.00758    0.50290    1.000
    N1443    N        0.22847    0.00795    0.60330    1.000
    Si1444   Si       0.23175    0.98082    0.56979    1.000
    Si1445   Si       0.13005    0.98536    0.55966    1.000
    N1446    N        0.14897    0.98196    0.60034    1.000
    N1447    N        0.17298    0.95053    0.49796    1.000
    N1448    N        0.22256    0.00891    0.53310    1.000
    Si1449   Si       0.05550    0.00245    0.62571    1.000
    Si1450   Si       0.00009    0.96527    0.66061    1.000
    N1451    N        0.05204    0.99491    0.71594    1.000
    N1452    N        0.09074    0.97862    0.63482    1.000
    Si1453   Si       0.03664    0.95707    0.72864    1.000
    N1454    N        0.02109    0.00570    0.65478    1.000
    Si1455   Si       0.15871    0.95054    0.70902    1.000
    N1456    N        0.16989    0.98396    0.73466    1.000
    Si1457   Si       0.23385    0.99854    0.64520    1.000
    Si1458   Si       0.13170    0.99485    0.64159    1.000
    N1459    N        0.14906    0.96910    0.67194    1.000
    N1460    N        0.23518    0.95773    0.64975    1.000
    N1461    N        0.01217    0.97094    0.76305    1.000
    Si1462   Si       0.10546    0.98456    0.80969    1.000
    N1463    N        0.02450    0.99839    0.84638    1.000
    N1464    N        0.09873    0.99089    0.76617    1.000
    N1465    N        0.07047    0.96020    0.81863    1.000
    Si1466   Si       0.03986    0.95777    0.84939    1.000
    N1467    N        0.14754    0.96927    0.80746    1.000
    Si1468   Si       0.16680    0.99551    0.77799    1.000
    N1469    N        0.20784    0.99800    0.79741    1.000
    N1470    N        0.21550    0.98347    0.86535    1.000
    N1471    N        0.01896    0.98156    0.93116    1.000
    Si1472   Si       0.07453    0.96205    0.98360    1.000
    N1473    N        0.06547    0.00544    0.97619    1.000
    N1474    N        0.11011    0.98421    0.88927    1.000
    N1475    N        0.14800    0.94839    0.93801    1.000
    Si1476   Si       0.11130    0.94970    0.91389    1.000
    Si1477   Si       0.21208    0.99521    0.90848    1.000
    N1478    N        0.15991    0.00022    0.98732    1.000
    Si1479   Si       0.15288    0.95988    0.97824    1.000
    N1480    N        0.21322    0.96039    0.93539    1.000
    N1481    N        0.29193    0.05063    0.07335    1.000
    Si1482   Si       0.29925    0.02197    0.03695    1.000
    Si1483   Si       0.26972    0.02124    0.09881    1.000
    N1484    N        0.25877    0.02582    0.01999    1.000
    N1485    N        0.30904    0.05231    0.00634    1.000
    N1486    N        0.34154    0.01550    0.06038    1.000
    Si1487   Si       0.26881    0.06530    0.99822    1.000
    N1488    N        0.36541    0.02745    0.11560    1.000
    Si1489   Si       0.36891    0.04545    0.07585    1.000
    N1490    N        0.40666    0.04618    0.05231    1.000
    Si1491   Si       0.44617    0.04006    0.03456    1.000
    N1492    N        0.43384    0.06190    0.99826    1.000
    Si1493   Si       0.25092    0.01786    0.23806    1.000
    N1494    N        0.27152    0.03968    0.13729    1.000
    Si1495   Si       0.34305    0.02009    0.20593    1.000
    N1496    N        0.33330    0.06080    0.20388    1.000
    Si1497   Si       0.27213    0.01362    0.17112    1.000
    N1498    N        0.35526    0.00819    0.24547    1.000
    N1499    N        0.37888    0.00817    0.18095    1.000
    N1500    N        0.46882    0.03924    0.18978    1.000
    N1501    N        0.43447    0.02070    0.13642    1.000
    Si1502   Si       0.45112    0.05564    0.15350    1.000
    Si1503   Si       0.39238    0.03401    0.14888    1.000
    N1504    N        0.33845    0.03369    0.30607    1.000
    Si1505   Si       0.29783    0.04676    0.29186    1.000
    N1506    N        0.26885    0.03851    0.32222    1.000
    Si1507   Si       0.28202    0.04416    0.36355    1.000
    Si1508   Si       0.34250    0.02959    0.35036    1.000
    N1509    N        0.28914    0.02213    0.25833    1.000
    N1510    N        0.32161    0.06568    0.36723    1.000
    Si1511   Si       0.37270    0.02765    0.28061    1.000
    N1512    N        0.44290    0.00925    0.34958    1.000
    N1513    N        0.24151    0.04282    0.47653    1.000
    N1514    N        0.27290    0.02880    0.40626    1.000
    N1515    N        0.33270    0.02397    0.47927    1.000
    Si1516   Si       0.34838    0.04507    0.44570    1.000
    N1517    N        0.34443    0.01441    0.41692    1.000
    Si1518   Si       0.24777    0.06311    0.41541    1.000
    N1519    N        0.38687    0.06338    0.46043    1.000
    N1520    N        0.44682    0.05279    0.46776    1.000
    Si1521   Si       0.42073    0.05715    0.43174    1.000
    Si1522   Si       0.41305    0.05333    0.49406    1.000
    Si1523   Si       0.45201    0.01406    0.39140    1.000
    N1524    N        0.47936    0.04375    0.40446    1.000
    N1525    N        0.41407    0.02015    0.41231    1.000
    Si1526   Si       0.32097    0.05012    0.51203    1.000
    N1527    N        0.31586    0.02200    0.59205    1.000
    N1528    N        0.28574    0.02968    0.52936    1.000
    Si1529   Si       0.30066    0.06319    0.60121    1.000
    N1530    N        0.35707    0.05955    0.53335    1.000
    N1531    N        0.26005    0.06489    0.58696    1.000
    Si1532   Si       0.25548    0.01121    0.50385    1.000
    Si1533   Si       0.42334    0.02153    0.60093    1.000
    N1534    N        0.45819    0.04016    0.58289    1.000
    Si1535   Si       0.37179    0.01687    0.54100    1.000
    N1536    N        0.40618    0.01632    0.51483    1.000
    N1537    N        0.23947    0.00571    0.73297    1.000
    Si1538   Si       0.31007    0.02957    0.66319    1.000
    N1539    N        0.30418    0.03166    0.70630    1.000
    Si1540   Si       0.32904    0.06174    0.72890    1.000
    N1541    N        0.34919    0.01203    0.65286    1.000
    N1542    N        0.27467    0.00718    0.66019    1.000
    Si1543   Si       0.39133    0.01135    0.66944    1.000
    Si1544   Si       0.38346    0.01186    0.74337    1.000
    N1545    N        0.40928    0.04056    0.63861    1.000
    N1546    N        0.39545    0.03346    0.70661    1.000
    Si1547   Si       0.34703    0.04108    0.80245    1.000
    Si1548   Si       0.28305    0.02890    0.82684    1.000
    N1549    N        0.35289    0.04071    0.75830    1.000
    N1550    N        0.31185    0.06109    0.82085    1.000
    N1551    N        0.24468    0.04658    0.83338    1.000
    Si1552   Si       0.45898    0.02236    0.84661    1.000
    Si1553   Si       0.41570    0.05201    0.78922    1.000
    N1554    N        0.45401    0.04926    0.81170    1.000
    Si1555   Si       0.39482    0.05974    0.86070    1.000
    N1556    N        0.38438    0.05855    0.81806    1.000
    N1557    N        0.42339    0.03007    0.86927    1.000
    N1558    N        0.41561    0.01067    0.77272    1.000
    N1559    N        0.48674    0.01397    0.77290    1.000
    N1560    N        0.35518    0.05218    0.87752    1.000
    N1561    N        0.24304    0.02337    0.91799    1.000
    Si1562   Si       0.28411    0.02589    0.89885    1.000
    N1563    N        0.35379    0.05989    0.94627    1.000
    Si1564   Si       0.34800    0.04952    0.98917    1.000
    Si1565   Si       0.35058    0.03041    0.91518    1.000
    Si1566   Si       0.46074    0.05457    0.96613    1.000
    N1567    N        0.36705    0.01068    0.99352    1.000
    N1568    N        0.47172    0.01233    0.96805    1.000
    Si1569   Si       0.31340    0.09262    0.08155    1.000
    N1570    N        0.35625    0.08741    0.07747    1.000
    N1571    N        0.29368    0.11794    0.05460    1.000
    Si1572   Si       0.24920    0.10863    0.05806    1.000
    N1573    N        0.24031    0.09072    0.09796    1.000
    Si1574   Si       0.40564    0.08091    0.02330    1.000
    N1575    N        0.41281    0.11293    0.05160    1.000
    Si1576   Si       0.38487    0.11702    0.08241    1.000
    N1577    N        0.36955    0.08502    0.00199    1.000
    N1578    N        0.47754    0.06930    0.05110    1.000
    N1579    N        0.30290    0.10285    0.12307    1.000
    Si1580   Si       0.26666    0.08188    0.13386    1.000
    Si1581   Si       0.33406    0.10341    0.20319    1.000
    Si1582   Si       0.25352    0.11911    0.19713    1.000
    N1583    N        0.35541    0.11744    0.16789    1.000
    N1584    N        0.29592    0.12062    0.18957    1.000
    N1585    N        0.34930    0.12605    0.23778    1.000
    N1586    N        0.24053    0.09075    0.16659    1.000
    Si1587   Si       0.39753    0.11409    0.16017    1.000
    N1588    N        0.47700    0.10335    0.18798    1.000
    N1589    N        0.47454    0.07855    0.12600    1.000
    Si1590   Si       0.47520    0.07025    0.21881    1.000
    N1591    N        0.41113    0.07253    0.16133    1.000
    N1592    N        0.44141    0.08952    0.23816    1.000
    N1593    N        0.28221    0.08757    0.27872    1.000
    Si1594   Si       0.24288    0.10405    0.34427    1.000
    Si1595   Si       0.23825    0.08762    0.27051    1.000
    N1596    N        0.36148    0.12378    0.37086    1.000
    Si1597   Si       0.29193    0.12726    0.29678    1.000
    Si1598   Si       0.36484    0.11014    0.27540    1.000
    Si1599   Si       0.42121    0.08649    0.27507    1.000
    N1600    N        0.47998    0.09915    0.35948    1.000
    N1601    N        0.38329    0.06924    0.27219    1.000
    N1602    N        0.45029    0.07478    0.30257    1.000
    N1603    N        0.40451    0.12446    0.28608    1.000
    N1604    N        0.25346    0.07568    0.37408    1.000
    Si1605   Si       0.26134    0.08102    0.48504    1.000
    N1606    N        0.26590    0.09118    0.44284    1.000
    Si1607   Si       0.32924    0.10294    0.39154    1.000
    N1608    N        0.34096    0.08594    0.43023    1.000
    N1609    N        0.36010    0.11790    0.49659    1.000
    Si1610   Si       0.31715    0.12536    0.49790    1.000
    Si1611   Si       0.46981    0.08585    0.39839    1.000
    N1612    N        0.48161    0.10537    0.43560    1.000
    Si1613   Si       0.48214    0.07515    0.46796    1.000
    N1614    N        0.42550    0.08798    0.40276    1.000
    Si1615   Si       0.37157    0.10517    0.45675    1.000
    Si1616   Si       0.40079    0.12325    0.39220    1.000
    N1617    N        0.32524    0.09604    0.58911    1.000
    Si1618   Si       0.35870    0.11733    0.60451    1.000
    N1619    N        0.30111    0.08587    0.50062    1.000
    N1620    N        0.24125    0.11246    0.50752    1.000
    Si1621   Si       0.42568    0.12663    0.58699    1.000
    Si1622   Si       0.45015    0.11432    0.51626    1.000
    Si1623   Si       0.37582    0.09887    0.53362    1.000
    N1624    N        0.41788    0.08664    0.52179    1.000
    N1625    N        0.38750    0.11747    0.57194    1.000
    N1626    N        0.44151    0.09964    0.61592    1.000
    Si1627   Si       0.47419    0.07415    0.60578    1.000
    N1628    N        0.48666    0.09424    0.50868    1.000
    Si1629   Si       0.28392    0.10807    0.65861    1.000
    N1630    N        0.26496    0.11310    0.69736    1.000
    N1631    N        0.35573    0.08829    0.70650    1.000
    Si1632   Si       0.35437    0.12235    0.67789    1.000
    Si1633   Si       0.28871    0.12270    0.73121    1.000
    N1634    N        0.25620    0.12369    0.62918    1.000
    N1635    N        0.29996    0.06856    0.64584    1.000
    Si1636   Si       0.39767    0.07601    0.71628    1.000
    N1637    N        0.37518    0.10376    0.64114    1.000
    Si1638   Si       0.41240    0.08377    0.64618    1.000
    N1639    N        0.42562    0.09173    0.68620    1.000
    N1640    N        0.48781    0.11816    0.69372    1.000
    N1641    N        0.25885    0.10472    0.80162    1.000
    Si1642   Si       0.29932    0.09467    0.79563    1.000
    Si1643   Si       0.32142    0.07683    0.86492    1.000
    N1644    N        0.30176    0.08783    0.75226    1.000
    N1645    N        0.33978    0.11489    0.86724    1.000
    Si1646   Si       0.44627    0.10637    0.76589    1.000
    N1647    N        0.41356    0.07954    0.75695    1.000
    N1648    N        0.44478    0.11540    0.80850    1.000
    N1649    N        0.48221    0.08261    0.75720    1.000
    N1650    N        0.47109    0.10585    0.86735    1.000
    Si1651   Si       0.48563    0.12009    0.82756    1.000
    Si1652   Si       0.28905    0.09686    0.93038    1.000
    N1653    N        0.26113    0.07767    0.95717    1.000
    N1654    N        0.32296    0.11640    0.95679    1.000
    N1655    N        0.29365    0.06849    0.89732    1.000
    Si1656   Si       0.36288    0.09836    0.96034    1.000
    N1657    N        0.45705    0.06987    0.92516    1.000
    Si1658   Si       0.49127    0.07464    0.89189    1.000
    N1659    N        0.39270    0.10890    0.93170    1.000
    Si1660   Si       0.43232    0.10491    0.91112    1.000
    N1661    N        0.40861    0.10051    0.87272    1.000
    Si1662   Si       0.30183    0.15784    0.03864    1.000
    N1663    N        0.33686    0.17584    0.01919    1.000
    N1664    N        0.27954    0.14930    0.00169    1.000
    Si1665   Si       0.27672    0.18443    0.10943    1.000
    N1666    N        0.36955    0.16095    0.07938    1.000
    Si1667   Si       0.39679    0.17292    0.11156    1.000
    N1668    N        0.46935    0.15465    0.07115    1.000
    Si1669   Si       0.44259    0.14405    0.04001    1.000
    N1670    N        0.41133    0.17265    0.02413    1.000
    Si1671   Si       0.37440    0.18315    0.04345    1.000
    N1672    N        0.46640    0.12657    0.00809    1.000
    N1673    N        0.40246    0.12889    0.11995    1.000
    N1674    N        0.30889    0.17181    0.13666    1.000
    Si1675   Si       0.31801    0.13296    0.15245    1.000
    Si1676   Si       0.41037    0.18117    0.17984    1.000
    N1677    N        0.41704    0.14017    0.19007    1.000
    N1678    N        0.47049    0.15146    0.24294    1.000
    Si1679   Si       0.44836    0.12677    0.21637    1.000
    Si1680   Si       0.35060    0.15280    0.33772    1.000
    N1681    N        0.28845    0.16042    0.26832    1.000
    Si1682   Si       0.28412    0.16128    0.36632    1.000
    Si1683   Si       0.33242    0.15973    0.26126    1.000
    N1684    N        0.33606    0.13491    0.29819    1.000
    N1685    N        0.31857    0.18078    0.34830    1.000
    N1686    N        0.27470    0.13194    0.33477    1.000
    N1687    N        0.45517    0.16174    0.31027    1.000
    Si1688   Si       0.41390    0.15063    0.32099    1.000
    N1689    N        0.42720    0.13763    0.36063    1.000
    Si1690   Si       0.46934    0.13996    0.34675    1.000
    N1691    N        0.38196    0.17769    0.32284    1.000
    N1692    N        0.30309    0.14653    0.46315    1.000
    N1693    N        0.29649    0.13143    0.39583    1.000
    Si1694   Si       0.27568    0.13249    0.43338    1.000
    N1695    N        0.24820    0.17955    0.49254    1.000
    Si1696   Si       0.28944    0.18606    0.47582    1.000
    N1697    N        0.45672    0.17748    0.43013    1.000
    Si1698   Si       0.41890    0.16447    0.45406    1.000
    Si1699   Si       0.47716    0.14487    0.45169    1.000
    N1700    N        0.39147    0.13731    0.43209    1.000
    N1701    N        0.44237    0.13831    0.47969    1.000
    N1702    N        0.30208    0.15624    0.52565    1.000
    Si1703   Si       0.25782    0.15109    0.52430    1.000
    Si1704   Si       0.25446    0.15804    0.60350    1.000
    N1705    N        0.29388    0.17847    0.60354    1.000
    N1706    N        0.35806    0.16003    0.61232    1.000
    Si1707   Si       0.45324    0.17604    0.56439    1.000
    N1708    N        0.45311    0.13486    0.55390    1.000
    N1709    N        0.42484    0.16854    0.60054    1.000
    Si1710   Si       0.38470    0.18136    0.58676    1.000
    N1711    N        0.36967    0.18271    0.54401    1.000
    N1712    N        0.31634    0.13407    0.65850    1.000
    Si1713   Si       0.32332    0.17065    0.63623    1.000
    N1714    N        0.31528    0.15544    0.73300    1.000
    Si1715   Si       0.33064    0.18690    0.70413    1.000
    N1716    N        0.36644    0.16213    0.69189    1.000
    N1717    N        0.44040    0.13832    0.73748    1.000
    Si1718   Si       0.44576    0.12852    0.69641    1.000
    Si1719   Si       0.44874    0.17788    0.63719    1.000
    N1720    N        0.43110    0.16158    0.67209    1.000
    Si1721   Si       0.34244    0.14185    0.83521    1.000
    Si1722   Si       0.33405    0.16331    0.77399    1.000
    N1723    N        0.32968    0.18069    0.85039    1.000
    N1724    N        0.25697    0.17358    0.86665    1.000
    N1725    N        0.25660    0.14504    0.75092    1.000
    N1726    N        0.32598    0.12790    0.79939    1.000
    N1727    N        0.44589    0.16629    0.85270    1.000
    N1728    N        0.38553    0.14833    0.83052    1.000
    Si1729   Si       0.40074    0.18126    0.80914    1.000
    Si1730   Si       0.42454    0.12887    0.84364    1.000
    Si1731   Si       0.44748    0.17941    0.74743    1.000
    N1732    N        0.37127    0.18526    0.77742    1.000
    Si1733   Si       0.24856    0.16608    0.90849    1.000
    Si1734   Si       0.29669    0.15257    0.96239    1.000
    N1735    N        0.27636    0.13861    0.92575    1.000
    Si1736   Si       0.47199    0.14602    0.96763    1.000
    N1737    N        0.38386    0.16470    0.89503    1.000
    Si1738   Si       0.45545    0.17131    0.89671    1.000
    N1739    N        0.45005    0.14066    0.92660    1.000
    Si1740   Si       0.37438    0.12178    0.89398    1.000
    Si1741   Si       0.25111    0.21471    0.05350    1.000
    N1742    N        0.26682    0.22685    0.11125    1.000
    N1743    N        0.24334    0.20186    0.01273    1.000
    N1744    N        0.28599    0.18669    0.06695    1.000
    N1745    N        0.37591    0.22673    0.05511    1.000
    N1746    N        0.42214    0.20695    0.10002    1.000
    N1747    N        0.48445    0.22673    0.01961    1.000
    Si1748   Si       0.40576    0.24365    0.08357    1.000
    N1749    N        0.41806    0.23927    0.00283    1.000
    Si1750   Si       0.35822    0.21650    0.22391    1.000
    N1751    N        0.25609    0.22793    0.18514    1.000
    N1752    N        0.32846    0.20358    0.19461    1.000
    Si1753   Si       0.33883    0.19889    0.15405    1.000
    Si1754   Si       0.29477    0.22964    0.20255    1.000
    N1755    N        0.33305    0.24022    0.13928    1.000
    N1756    N        0.28841    0.22544    0.24590    1.000
    Si1757   Si       0.48393    0.20516    0.18776    1.000
    Si1758   Si       0.45572    0.21383    0.12394    1.000
    N1759    N        0.39720    0.21240    0.20814    1.000
    N1760    N        0.37982    0.18595    0.14952    1.000
    N1761    N        0.44996    0.19413    0.16364    1.000
    Si1762   Si       0.42637    0.22832    0.23547    1.000
    N1763    N        0.46828    0.21812    0.22541    1.000
    N1764    N        0.26609    0.21034    0.31298    1.000
    Si1765   Si       0.30356    0.22075    0.33378    1.000
    Si1766   Si       0.26649    0.19776    0.27123    1.000
    N1767    N        0.35546    0.19479    0.26078    1.000
    Si1768   Si       0.38100    0.21028    0.29307    1.000
    N1769    N        0.47421    0.21719    0.36059    1.000
    N1770    N        0.42121    0.21016    0.27558    1.000
    N1771    N        0.48666    0.20939    0.28389    1.000
    Si1772   Si       0.45720    0.18175    0.27185    1.000
    N1773    N        0.29011    0.23816    0.37151    1.000
    N1774    N        0.25032    0.18719    0.37454    1.000
    Si1775   Si       0.26501    0.21871    0.40287    1.000
    N1776    N        0.28845    0.21195    0.43875    1.000
    N1777    N        0.32185    0.20970    0.49189    1.000
    Si1778   Si       0.31823    0.24107    0.45876    1.000
    N1779    N        0.43005    0.23740    0.41538    1.000
    Si1780   Si       0.41246    0.23404    0.45509    1.000
    N1781    N        0.39971    0.19591    0.47396    1.000
    Si1782   Si       0.46567    0.21414    0.40529    1.000
    Si1783   Si       0.28997    0.22040    0.59086    1.000
    N1784    N        0.32157    0.22408    0.56059    1.000
    N1785    N        0.25300    0.23226    0.57233    1.000
    Si1786   Si       0.32793    0.19086    0.53108    1.000
    Si1787   Si       0.36139    0.24274    0.56790    1.000
    N1788    N        0.48569    0.20017    0.57724    1.000
    N1789    N        0.38704    0.22412    0.59638    1.000
    N1790    N        0.43464    0.20029    0.53632    1.000
    Si1791   Si       0.39707    0.20635    0.51846    1.000
    Si1792   Si       0.46120    0.23001    0.51947    1.000
    Si1793   Si       0.49094    0.24279    0.57951    1.000
    Si1794   Si       0.24223    0.22527    0.71430    1.000
    N1795    N        0.35123    0.22179    0.72358    1.000
    N1796    N        0.31825    0.20239    0.66397    1.000
    N1797    N        0.28801    0.21416    0.71929    1.000
    Si1798   Si       0.29172    0.23600    0.66111    1.000
    N1799    N        0.25110    0.24278    0.67506    1.000
    Si1800   Si       0.40947    0.23876    0.63235    1.000
    N1801    N        0.41759    0.20332    0.72686    1.000
    Si1802   Si       0.40104    0.18665    0.68954    1.000
    N1803    N        0.44893    0.22194    0.64140    1.000
    N1804    N        0.38623    0.22170    0.66580    1.000
    N1805    N        0.27842    0.22845    0.83140    1.000
    Si1806   Si       0.29142    0.19915    0.86172    1.000
    Si1807   Si       0.31355    0.22959    0.80676    1.000
    N1808    N        0.30439    0.19319    0.78433    1.000
    N1809    N        0.24122    0.21220    0.76159    1.000
    Si1810   Si       0.27666    0.18569    0.75107    1.000
    Si1811   Si       0.36869    0.19284    0.86335    1.000
    N1812    N        0.39961    0.21180    0.83878    1.000
    N1813    N        0.46512    0.23172    0.84502    1.000
    Si1814   Si       0.38476    0.21843    0.75203    1.000
    Si1815   Si       0.46898    0.19255    0.82255    1.000
    Si1816   Si       0.42561    0.23957    0.86254    1.000
    N1817    N        0.43917    0.18568    0.79027    1.000
    N1818    N        0.25084    0.20484    0.93053    1.000
    N1819    N        0.30549    0.22547    0.89413    1.000
    Si1820   Si       0.29113    0.22202    0.93518    1.000
    Si1821   Si       0.34590    0.19991    0.98261    1.000
    N1822    N        0.31277    0.19146    0.95822    1.000
    N1823    N        0.34525    0.24177    0.99730    1.000
    Si1824   Si       0.48719    0.21943    0.97662    1.000
    N1825    N        0.37122    0.22754    0.89437    1.000
    N1826    N        0.43730    0.21075    0.90538    1.000
    N1827    N        0.45930    0.18665    0.97216    1.000
    N1828    N        0.38576    0.19424    0.96140    1.000
    Si1829   Si       0.39742    0.19977    0.91948    1.000
    Si1830   Si       0.41865    0.19844    0.98914    1.000
    Si1831   Si       0.46592    0.24394    0.91593    1.000
    Si1832   Si       0.28360    0.28673    0.05259    1.000
    N1833    N        0.31419    0.27757    0.08223    1.000
    N1834    N        0.25464    0.25675    0.03990    1.000
    Si1835   Si       0.35362    0.29456    0.07501    1.000
    Si1836   Si       0.30044    0.25575    0.11647    1.000
    N1837    N        0.30131    0.29906    0.01444    1.000
    N1838    N        0.37439    0.29210    0.03842    1.000
    N1839    N        0.44266    0.26010    0.06307    1.000
    N1840    N        0.38062    0.27240    0.10438    1.000
    Si1841   Si       0.46982    0.28096    0.09134    1.000
    Si1842   Si       0.45360    0.25669    0.02119    1.000
    Si1843   Si       0.38041    0.25462    0.02019    1.000
    N1844    N        0.46503    0.29584    0.00996    1.000
    N1845    N        0.27026    0.28132    0.13849    1.000
    N1846    N        0.30275    0.27521    0.19907    1.000
    Si1847   Si       0.34966    0.28746    0.20556    1.000
    N1848    N        0.35093    0.25677    0.23704    1.000
    Si1849   Si       0.36203    0.27400    0.14189    1.000
    Si1850   Si       0.26690    0.29090    0.22726    1.000
    Si1851   Si       0.24482    0.24590    0.14370    1.000
    N1852    N        0.38177    0.28578    0.17815    1.000
    Si1853   Si       0.47563    0.27553    0.15856    1.000
    Si1854   Si       0.45705    0.29183    0.23124    1.000
    N1855    N        0.45317    0.25820    0.12654    1.000
    N1856    N        0.45109    0.29373    0.18931    1.000
    Si1857   Si       0.35168    0.27639    0.31557    1.000
    Si1858   Si       0.31378    0.25610    0.26258    1.000
    N1859    N        0.33856    0.28813    0.35573    1.000
    N1860    N        0.29379    0.29546    0.26125    1.000
    N1861    N        0.32081    0.24663    0.30451    1.000
    N1862    N        0.46104    0.27041    0.30843    1.000
    Si1863   Si       0.47392    0.25854    0.34814    1.000
    Si1864   Si       0.42667    0.25261    0.29155    1.000
    N1865    N        0.38640    0.25090    0.30977    1.000
    N1866    N        0.42811    0.26778    0.25159    1.000
    N1867    N        0.32242    0.26765    0.42363    1.000
    Si1868   Si       0.30659    0.27659    0.38411    1.000
    N1869    N        0.32628    0.27449    0.48837    1.000
    Si1870   Si       0.24604    0.29169    0.41548    1.000
    Si1871   Si       0.28913    0.29758    0.48802    1.000
    Si1872   Si       0.35885    0.28981    0.43136    1.000
    N1873    N        0.26074    0.30168    0.45434    1.000
    Si1874   Si       0.42856    0.28050    0.40658    1.000
    N1875    N        0.38074    0.26347    0.45839    1.000
    Si1876   Si       0.45634    0.28933    0.47805    1.000
    N1877    N        0.45080    0.28838    0.37057    1.000
    N1878    N        0.38847    0.29353    0.40128    1.000
    N1879    N        0.44065    0.24955    0.48604    1.000
    N1880    N        0.35322    0.28120    0.58611    1.000
    Si1881   Si       0.31440    0.28450    0.60113    1.000
    N1882    N        0.28674    0.29585    0.56935    1.000
    Si1883   Si       0.25235    0.27169    0.55422    1.000
    N1884    N        0.25843    0.27685    0.51147    1.000
    N1885    N        0.29540    0.25173    0.62087    1.000
    Si1886   Si       0.36739    0.27856    0.49844    1.000
    N1887    N        0.47792    0.27032    0.60954    1.000
    N1888    N        0.47761    0.26084    0.54353    1.000
    N1889    N        0.37981    0.24697    0.52595    1.000
    N1890    N        0.32074    0.26576    0.68937    1.000
    N1891    N        0.26967    0.27415    0.73501    1.000
    Si1892   Si       0.31078    0.24955    0.73044    1.000
    Si1893   Si       0.24404    0.29800    0.70811    1.000
    Si1894   Si       0.36075    0.24777    0.68921    1.000
    N1895    N        0.45864    0.28254    0.67706    1.000
    Si1896   Si       0.47773    0.25312    0.65109    1.000
    N1897    N        0.40556    0.28252    0.63306    1.000
    Si1898   Si       0.47377    0.28602    0.71712    1.000
    N1899    N        0.38585    0.27741    0.70929    1.000
    N1900    N        0.31645    0.25764    0.77402    1.000
    Si1901   Si       0.28784    0.29265    0.77124    1.000
    N1902    N        0.25541    0.28884    0.80023    1.000
    Si1903   Si       0.24513    0.25174    0.81984    1.000
    N1904    N        0.34261    0.24505    0.83484    1.000
    N1905    N        0.41209    0.27633    0.84032    1.000
    N1906    N        0.39101    0.25605    0.77546    1.000
    Si1907   Si       0.37513    0.26684    0.81459    1.000
    Si1908   Si       0.40397    0.28684    0.74970    1.000
    N1909    N        0.48745    0.29768    0.85307    1.000
    N1910    N        0.44608    0.29732    0.74819    1.000
    N1911    N        0.25312    0.30205    0.90940    1.000
    N1912    N        0.29167    0.25927    0.95460    1.000
    Si1913   Si       0.25680    0.28263    0.94929    1.000
    Si1914   Si       0.31947    0.27396    0.98449    1.000
    N1915    N        0.33639    0.29121    0.88466    1.000
    Si1916   Si       0.33706    0.24916    0.88054    1.000
    N1917    N        0.46966    0.25563    0.95883    1.000
    Si1918   Si       0.47758    0.29788    0.96871    1.000
    N1919    N        0.43928    0.27513    0.89648    1.000
    N1920    N        0.34644    0.33627    0.08754    1.000
    N1921    N        0.25447    0.31180    0.07387    1.000
    Si1922   Si       0.25409    0.31763    0.11499    1.000
    Si1923   Si       0.28521    0.33691    0.99997    1.000
    N1924    N        0.24867    0.35446    0.02055    1.000
    Si1925   Si       0.47836    0.32746    0.03756    1.000
    N1926    N        0.46244    0.32383    0.07958    1.000
    Si1927   Si       0.46291    0.33964    0.12033    1.000
    Si1928   Si       0.32804    0.34372    0.12509    1.000
    N1929    N        0.28481    0.34422    0.13447    1.000
    N1930    N        0.26056    0.32270    0.19943    1.000
    N1931    N        0.34671    0.32608    0.22831    1.000
    N1932    N        0.33100    0.30542    0.14850    1.000
    Si1933   Si       0.29124    0.30600    0.16757    1.000
    Si1934   Si       0.41492    0.31416    0.17659    1.000
    N1935    N        0.42438    0.33620    0.13922    1.000
    Si1936   Si       0.37617    0.35754    0.23029    1.000
    N1937    N        0.40568    0.34971    0.20041    1.000
    N1938    N        0.49037    0.30464    0.13190    1.000
    Si1939   Si       0.32140    0.32828    0.26463    1.000
    Si1940   Si       0.26268    0.33517    0.35539    1.000
    N1941    N        0.35064    0.31721    0.29573    1.000
    N1942    N        0.29406    0.35625    0.33434    1.000
    N1943    N        0.45901    0.34131    0.31987    1.000
    Si1944   Si       0.43865    0.33069    0.35719    1.000
    N1945    N        0.39651    0.33313    0.34504    1.000
    Si1946   Si       0.37877    0.34879    0.30842    1.000
    N1947    N        0.45903    0.32601    0.25595    1.000
    Si1948   Si       0.47294    0.31036    0.29425    1.000
    N1949    N        0.33875    0.34603    0.38718    1.000
    N1950    N        0.35544    0.33121    0.45066    1.000
    N1951    N        0.27362    0.30424    0.38465    1.000
    Si1952   Si       0.36756    0.31589    0.37010    1.000
    Si1953   Si       0.38438    0.34846    0.47911    1.000
    N1954    N        0.44087    0.30255    0.44073    1.000
    Si1955   Si       0.45287    0.34366    0.43480    1.000
    N1956    N        0.44981    0.35280    0.39338    1.000
    Si1957   Si       0.28854    0.33449    0.55002    1.000
    N1958    N        0.29959    0.33342    0.50881    1.000
    Si1959   Si       0.33455    0.35090    0.61393    1.000
    N1960    N        0.31489    0.35505    0.57611    1.000
    N1961    N        0.24795    0.35091    0.55553    1.000
    N1962    N        0.37538    0.34856    0.59806    1.000
    Si1963   Si       0.42188    0.32583    0.53544    1.000
    N1964    N        0.45709    0.31754    0.51019    1.000
    N1965    N        0.39028    0.31498    0.50546    1.000
    Si1966   Si       0.46044    0.30633    0.59474    1.000
    Si1967   Si       0.38806    0.30433    0.59800    1.000
    N1968    N        0.48923    0.32149    0.56691    1.000
    N1969    N        0.42352    0.30380    0.57190    1.000
    N1970    N        0.24518    0.34359    0.62582    1.000
    N1971    N        0.27819    0.32216    0.69541    1.000
    N1972    N        0.31901    0.31224    0.63341    1.000
    Si1973   Si       0.30510    0.34497    0.72127    1.000
    N1974    N        0.33870    0.33454    0.69566    1.000
    Si1975   Si       0.31262    0.30483    0.67409    1.000
    Si1976   Si       0.37632    0.31964    0.70919    1.000
    N1977    N        0.45051    0.33098    0.62845    1.000
    N1978    N        0.40836    0.33464    0.68371    1.000
    Si1979   Si       0.42941    0.30679    0.65967    1.000
    N1980    N        0.31127    0.32721    0.76077    1.000
    Si1981   Si       0.25786    0.32816    0.81974    1.000
    N1982    N        0.29761    0.32651    0.83190    1.000
    Si1983   Si       0.33484    0.31889    0.85112    1.000
    Si1984   Si       0.35372    0.33510    0.78150    1.000
    N1985    N        0.35743    0.30758    0.81444    1.000
    N1986    N        0.35579    0.35331    0.86455    1.000
    N1987    N        0.24613    0.36169    0.79316    1.000
    Si1988   Si       0.46725    0.31607    0.78129    1.000
    N1989    N        0.44381    0.33012    0.81389    1.000
    N1990    N        0.38183    0.32454    0.75154    1.000
    Si1991   Si       0.44385    0.30396    0.85418    1.000
    N1992    N        0.31492    0.34654    0.91551    1.000
    Si1993   Si       0.34537    0.31566    0.92097    1.000
    Si1994   Si       0.27192    0.34068    0.92330    1.000
    N1995    N        0.26655    0.32417    0.96334    1.000
    N1996    N        0.34449    0.30066    0.95981    1.000
    N1997    N        0.45048    0.32528    0.94871    1.000
    Si1998   Si       0.39519    0.35993    0.88617    1.000
    N1999    N        0.43592    0.33646    0.88202    1.000
    N2000    N        0.38705    0.32714    0.91743    1.000
    Si2001   Si       0.42679    0.31073    0.91687    1.000
    N2002    N        0.33671    0.39491    0.05307    1.000
    Si2003   Si       0.34873    0.38678    0.01138    1.000
    Si2004   Si       0.28241    0.40584    0.00621    1.000
    N2005    N        0.27207    0.41244    0.04835    1.000
    N2006    N        0.30943    0.37182    0.99775    1.000
    N2007    N        0.29281    0.40923    0.11847    1.000
    Si2008   Si       0.30526    0.41627    0.07665    1.000
    Si2009   Si       0.36899    0.36713    0.06582    1.000
    N2010    N        0.46325    0.40457    0.08604    1.000
    Si2011   Si       0.42362    0.38819    0.01575    1.000
    N2012    N        0.39802    0.38540    0.09445    1.000
    N2013    N        0.38580    0.36807    0.02577    1.000
    Si2014   Si       0.48178    0.39753    0.04672    1.000
    N2015    N        0.45960    0.36651    0.02657    1.000
    Si2016   Si       0.42330    0.41975    0.08128    1.000
    N2017    N        0.35576    0.37328    0.14450    1.000
    N2018    N        0.29757    0.38420    0.18686    1.000
    Si2019   Si       0.27521    0.38437    0.14916    1.000
    Si2020   Si       0.33836    0.39648    0.17535    1.000
    Si2021   Si       0.28816    0.39080    0.22826    1.000
    N2022    N        0.24520    0.38722    0.22678    1.000
    N2023    N        0.35859    0.39192    0.21445    1.000
    N2024    N        0.42276    0.40338    0.15630    1.000
    Si2025   Si       0.47861    0.36245    0.24123    1.000
    N2026    N        0.41588    0.41811    0.23146    1.000
    N2027    N        0.46813    0.37874    0.20203    1.000
    Si2028   Si       0.42728    0.38942    0.19747    1.000
    Si2029   Si       0.39793    0.37267    0.13501    1.000
    Si2030   Si       0.28194    0.38158    0.30186    1.000
    Si2031   Si       0.32671    0.37441    0.35764    1.000
    N2032    N        0.35683    0.38230    0.32706    1.000
    N2033    N        0.29940    0.36759    0.26373    1.000
    Si2034   Si       0.47786    0.38023    0.31388    1.000
    Si2035   Si       0.42288    0.39558    0.26980    1.000
    N2036    N        0.46753    0.39242    0.27257    1.000
    N2037    N        0.46524    0.40326    0.34642    1.000
    N2038    N        0.39381    0.36317    0.27129    1.000
    N2039    N        0.30457    0.40832    0.37519    1.000
    Si2040   Si       0.26237    0.40378    0.38133    1.000
    N2041    N        0.31302    0.38565    0.45331    1.000
    Si2042   Si       0.34032    0.36493    0.42604    1.000
    N2043    N        0.25885    0.41713    0.42378    1.000
    N2044    N        0.41829    0.36637    0.45719    1.000
    Si2045   Si       0.40640    0.40439    0.43921    1.000
    Si2046   Si       0.46789    0.39181    0.38772    1.000
    N2047    N        0.36948    0.39621    0.41889    1.000
    N2048    N        0.29636    0.39714    0.52786    1.000
    Si2049   Si       0.31005    0.39871    0.56800    1.000
    N2050    N        0.28002    0.40068    0.60030    1.000
    N2051    N        0.35066    0.40906    0.58161    1.000
    Si2052   Si       0.24679    0.37290    0.59274    1.000
    N2053    N        0.35979    0.37454    0.50410    1.000
    Si2054   Si       0.26125    0.41796    0.51452    1.000
    Si2055   Si       0.31747    0.37280    0.49784    1.000
    Si2056   Si       0.38777    0.38477    0.57418    1.000
    Si2057   Si       0.45055    0.39860    0.55724    1.000
    N2058    N        0.47607    0.38264    0.58956    1.000
    N2059    N        0.42006    0.36712    0.54660    1.000
    N2060    N        0.48135    0.40997    0.52761    1.000
    N2061    N        0.41903    0.41985    0.57763    1.000
    Si2062   Si       0.34406    0.37822    0.68422    1.000
    N2063    N        0.31174    0.38678    0.71375    1.000
    N2064    N        0.26161    0.40582    0.66719    1.000
    N2065    N        0.32704    0.38058    0.64515    1.000
    Si2066   Si       0.29335    0.40635    0.63949    1.000
    Si2067   Si       0.28091    0.41477    0.73036    1.000
    N2068    N        0.38206    0.39297    0.69959    1.000
    N2069    N        0.43446    0.39700    0.65492    1.000
    Si2070   Si       0.46419    0.37490    0.63133    1.000
    N2071    N        0.45922    0.37534    0.71192    1.000
    Si2072   Si       0.42189    0.37459    0.68933    1.000
    Si2073   Si       0.25986    0.40175    0.80500    1.000
    N2074    N        0.26633    0.40093    0.84834    1.000
    N2075    N        0.33325    0.41135    0.85830    1.000
    N2076    N        0.29092    0.41350    0.77384    1.000
    N2077    N        0.36225    0.37845    0.79704    1.000
    Si2078   Si       0.36335    0.38872    0.83891    1.000
    N2079    N        0.47331    0.38629    0.84352    1.000
    N2080    N        0.40628    0.38569    0.84927    1.000
    N2081    N        0.43006    0.39083    0.78091    1.000
    Si2082   Si       0.39024    0.40981    0.78385    1.000
    Si2083   Si       0.46526    0.38551    0.75412    1.000
    Si2084   Si       0.43809    0.37243    0.82135    1.000
    Si2085   Si       0.26424    0.41082    0.93345    1.000
    N2086    N        0.25294    0.40023    0.97461    1.000
    Si2087   Si       0.33536    0.38350    0.90023    1.000
    N2088    N        0.24949    0.37418    0.91145    1.000
    N2089    N        0.30209    0.41062    0.91297    1.000
    N2090    N        0.36277    0.41833    0.98463    1.000
    Si2091   Si       0.39316    0.41044    0.95094    1.000
    N2092    N        0.37476    0.39286    0.91723    1.000
    Si2093   Si       0.45466    0.36965    0.95135    1.000
    Si2094   Si       0.46905    0.36566    0.88351    1.000
    N2095    N        0.42317    0.38841    0.97308    1.000
    N2096    N        0.45152    0.39104    0.91270    1.000
    N2097    N        0.32950    0.45229    0.08371    1.000
    Si2098   Si       0.29343    0.47718    0.01307    1.000
    N2099    N        0.27938    0.48272    0.05321    1.000
    N2100    N        0.30205    0.44208    0.99128    1.000
    N2101    N        0.49086    0.43668    0.03099    1.000
    Si2102   Si       0.45374    0.46114    0.03039    1.000
    N2103    N        0.42462    0.45382    0.10841    1.000
    N2104    N        0.42417    0.42871    0.03741    1.000
    Si2105   Si       0.29931    0.44378    0.14487    1.000
    N2106    N        0.33697    0.43949    0.16736    1.000
    N2107    N        0.26884    0.44653    0.17737    1.000
    N2108    N        0.29714    0.43308    0.23656    1.000
    Si2109   Si       0.28412    0.46765    0.21104    1.000
    N2110    N        0.48421    0.43147    0.14749    1.000
    N2111    N        0.47879    0.45164    0.22872    1.000
    N2112    N        0.43174    0.46723    0.18033    1.000
    Si2113   Si       0.44131    0.44066    0.14706    1.000
    N2114    N        0.37281    0.46904    0.21891    1.000
    Si2115   Si       0.37188    0.42783    0.23384    1.000
    Si2116   Si       0.43257    0.45729    0.22307    1.000
    Si2117   Si       0.31457    0.44492    0.27426    1.000
    N2118    N        0.35103    0.44955    0.33765    1.000
    Si2119   Si       0.30833    0.44191    0.34669    1.000
    N2120    N        0.35295    0.42921    0.27201    1.000
    N2121    N        0.24639    0.42906    0.35072    1.000
    Si2122   Si       0.24531    0.47301    0.34763    1.000
    N2123    N        0.29688    0.42325    0.30734    1.000
    N2124    N        0.46966    0.45744    0.30213    1.000
    Si2125   Si       0.42801    0.46713    0.29443    1.000
    Si2126   Si       0.47930    0.44613    0.34135    1.000
    N2127    N        0.41028    0.42586    0.29937    1.000
    Si2128   Si       0.48485    0.43235    0.26752    1.000
    Si2129   Si       0.36798    0.42107    0.31017    1.000
    N2130    N        0.27757    0.44201    0.48210    1.000
    N2131    N        0.32575    0.45598    0.44325    1.000
    Si2132   Si       0.29607    0.42314    0.44600    1.000
    Si2133   Si       0.30151    0.47846    0.47164    1.000
    Si2134   Si       0.36693    0.46829    0.43065    1.000
    Si2135   Si       0.42440    0.47183    0.47183    1.000
    N2136    N        0.39487    0.44515    0.45379    1.000
    N2137    N        0.45667    0.46809    0.36885    1.000
    N2138    N        0.39212    0.47001    0.39409    1.000
    Si2139   Si       0.43394    0.45999    0.40412    1.000
    N2140    N        0.43846    0.41654    0.41324    1.000
    N2141    N        0.30952    0.45423    0.56780    1.000
    Si2142   Si       0.33562    0.44452    0.60279    1.000
    Si2143   Si       0.26741    0.46409    0.57523    1.000
    N2144    N        0.24380    0.43628    0.54900    1.000
    N2145    N        0.36772    0.47202    0.61060    1.000
    Si2146   Si       0.40836    0.45671    0.59584    1.000
    N2147    N        0.43979    0.45872    0.50969    1.000
    Si2148   Si       0.48098    0.45346    0.51657    1.000
    Si2149   Si       0.31297    0.46426    0.67569    1.000
    N2150    N        0.30937    0.44719    0.63575    1.000
    N2151    N        0.28628    0.45315    0.70881    1.000
    N2152    N        0.35602    0.45673    0.68292    1.000
    Si2153   Si       0.24738    0.47146    0.70324    1.000
    N2154    N        0.42292    0.45302    0.70182    1.000
    Si2155   Si       0.44300    0.43919    0.66537    1.000
    N2156    N        0.48525    0.43662    0.67593    1.000
    Si2157   Si       0.38316    0.43605    0.71074    1.000
    Si2158   Si       0.38386    0.47298    0.65333    1.000
    N2159    N        0.42121    0.45928    0.63631    1.000
    Si2160   Si       0.29494    0.42489    0.87148    1.000
    N2161    N        0.28693    0.46663    0.86996    1.000
    N2162    N        0.39436    0.44349    0.81274    1.000
    Si2163   Si       0.41402    0.46267    0.84679    1.000
    N2164    N        0.37505    0.43795    0.75221    1.000
    Si2165   Si       0.38934    0.47186    0.77820    1.000
    Si2166   Si       0.47985    0.42992    0.84507    1.000
    N2167    N        0.48016    0.44900    0.80575    1.000
    N2168    N        0.43188    0.47412    0.76572    1.000
    N2169    N        0.44731    0.44527    0.86968    1.000
    Si2170   Si       0.34080    0.45606    0.98017    1.000
    N2171    N        0.24659    0.44817    0.92398    1.000
    N2172    N        0.35261    0.47850    0.94395    1.000
    N2173    N        0.45706    0.48138    0.99025    1.000
    N2174    N        0.41277    0.44636    0.93201    1.000
    Si2175   Si       0.44811    0.43538    0.91111    1.000
    N2176    N        0.48543    0.45095    0.92927    1.000
    Si2177   Si       0.39043    0.48135    0.92338    1.000
    Si2178   Si       0.49076    0.47846    0.96147    1.000
    N2179    N        0.38742    0.47909    0.87583    1.000
    N2180    N        0.32069    0.52596    0.08716    1.000
    N2181    N        0.33594    0.48980    0.00636    1.000
    Si2182   Si       0.30516    0.48642    0.08715    1.000
    Si2183   Si       0.35687    0.52633    0.99879    1.000
    Si2184   Si       0.24119    0.50205    0.04324    1.000
    N2185    N        0.25730    0.49809    0.99906    1.000
    N2186    N        0.39567    0.51055    0.07746    1.000
    Si2187   Si       0.43211    0.49476    0.09269    1.000
    N2188    N        0.45892    0.49192    0.05983    1.000
    N2189    N        0.40056    0.52365    0.99776    1.000
    N2190    N        0.28669    0.47934    0.12586    1.000
    Si2191   Si       0.25167    0.52788    0.22176    1.000
    N2192    N        0.26416    0.51946    0.18199    1.000
    N2193    N        0.32077    0.49791    0.20338    1.000
    Si2194   Si       0.25432    0.50381    0.14163    1.000
    N2195    N        0.25364    0.48619    0.23533    1.000
    Si2196   Si       0.34605    0.49678    0.24049    1.000
    Si2197   Si       0.35537    0.47882    0.17963    1.000
    N2198    N        0.44536    0.51345    0.13059    1.000
    Si2199   Si       0.44545    0.52283    0.23988    1.000
    N2200    N        0.37898    0.50888    0.16001    1.000
    Si2201   Si       0.42145    0.50654    0.16855    1.000
    N2202    N        0.48741    0.51537    0.24000    1.000
    N2203    N        0.43123    0.53301    0.20043    1.000
    Si2204   Si       0.48659    0.51863    0.13586    1.000
    Si2205   Si       0.28881    0.51828    0.28843    1.000
    N2206    N        0.31591    0.48813    0.27176    1.000
    Si2207   Si       0.31121    0.51941    0.36146    1.000
    N2208    N        0.25439    0.49552    0.30522    1.000
    N2209    N        0.35530    0.51669    0.36522    1.000
    N2210    N        0.29110    0.48176    0.35505    1.000
    N2211    N        0.36811    0.52532    0.26130    1.000
    N2212    N        0.42924    0.48555    0.25541    1.000
    N2213    N        0.41087    0.48998    0.32772    1.000
    Si2214   Si       0.43746    0.50551    0.36150    1.000
    Si2215   Si       0.37755    0.48214    0.35340    1.000
    N2216    N        0.27003    0.49850    0.44887    1.000
    Si2217   Si       0.35256    0.52673    0.47943    1.000
    Si2218   Si       0.25690    0.52149    0.41339    1.000
    N2219    N        0.36575    0.51151    0.43948    1.000
    N2220    N        0.29841    0.53467    0.40012    1.000
    N2221    N        0.44964    0.48185    0.43717    1.000
    N2222    N        0.40759    0.50551    0.49280    1.000
    N2223    N        0.41585    0.53740    0.38612    1.000
    Si2224   Si       0.37491    0.53167    0.40239    1.000
    N2225    N        0.27286    0.49951    0.55198    1.000
    N2226    N        0.33296    0.52191    0.57473    1.000
    Si2227   Si       0.31648    0.49346    0.54377    1.000
    N2228    N        0.32724    0.49516    0.50217    1.000
    Si2229   Si       0.37223    0.51145    0.58924    1.000
    Si2230   Si       0.43038    0.49531    0.53338    1.000
    N2231    N        0.40794    0.49074    0.57013    1.000
    N2232    N        0.48395    0.48754    0.54639    1.000
    N2233    N        0.44089    0.53811    0.53716    1.000
    N2234    N        0.24462    0.50150    0.67156    1.000
    N2235    N        0.30984    0.50679    0.67468    1.000
    Si2236   Si       0.34582    0.52912    0.67983    1.000
    Si2237   Si       0.27374    0.53250    0.67574    1.000
    N2238    N        0.34718    0.53789    0.72155    1.000
    N2239    N        0.46395    0.51891    0.66406    1.000
    N2240    N        0.48499    0.49219    0.72399    1.000
    Si2241   Si       0.48760    0.52622    0.62718    1.000
    Si2242   Si       0.44317    0.48337    0.72532    1.000
    N2243    N        0.38360    0.51521    0.66049    1.000
    N2244    N        0.42136    0.52108    0.71844    1.000
    Si2245   Si       0.29115    0.49584    0.83947    1.000
    N2246    N        0.33569    0.50007    0.83180    1.000
    Si2247   Si       0.33955    0.52394    0.79767    1.000
    N2248    N        0.30243    0.52663    0.77200    1.000
    Si2249   Si       0.26127    0.51230    0.77472    1.000
    N2250    N        0.26195    0.48477    0.80942    1.000
    Si2251   Si       0.36124    0.51202    0.86632    1.000
    N2252    N        0.37543    0.51141    0.77729    1.000
    N2253    N        0.43515    0.49686    0.82916    1.000
    Si2254   Si       0.45954    0.48671    0.79500    1.000
    Si2255   Si       0.43750    0.53545    0.85020    1.000
    N2256    N        0.48822    0.51710    0.78584    1.000
    Si2257   Si       0.32480    0.51354    0.93785    1.000
    Si2258   Si       0.25373    0.52461    0.96589    1.000
    N2259    N        0.28056    0.50743    0.93612    1.000
    N2260    N        0.33822    0.52737    0.89882    1.000
    Si2261   Si       0.26357    0.48373    0.90367    1.000
    N2262    N        0.41443    0.51522    0.93424    1.000
    N2263    N        0.48504    0.51968    0.95024    1.000
    Si2264   Si       0.43960    0.51844    0.97370    1.000
    Si2265   Si       0.30188    0.55329    0.11287    1.000
    Si2266   Si       0.24322    0.57651    0.01795    1.000
    N2267    N        0.35468    0.55353    0.03358    1.000
    N2268    N        0.24255    0.54582    0.04801    1.000
    N2269    N        0.25956    0.54166    0.12065    1.000
    N2270    N        0.29705    0.59346    0.09930    1.000
    Si2271   Si       0.36045    0.53447    0.07186    1.000
    N2272    N        0.36775    0.56732    0.09992    1.000
    Si2273   Si       0.41393    0.56163    0.01697    1.000
    N2274    N        0.44027    0.58164    0.04846    1.000
    Si2275   Si       0.47617    0.57384    0.02649    1.000
    N2276    N        0.39014    0.59431    0.99870    1.000
    N2277    N        0.30975    0.57770    0.19970    1.000
    N2278    N        0.32756    0.54397    0.14833    1.000
    N2279    N        0.24411    0.59420    0.17207    1.000
    Si2280   Si       0.34648    0.59700    0.21811    1.000
    Si2281   Si       0.30686    0.53610    0.18578    1.000
    Si2282   Si       0.41664    0.57350    0.19661    1.000
    N2283    N        0.39984    0.57465    0.15734    1.000
    N2284    N        0.38436    0.57896    0.22409    1.000
    Si2285   Si       0.36981    0.54882    0.13963    1.000
    Si2286   Si       0.30144    0.58822    0.32574    1.000
    Si2287   Si       0.28428    0.58776    0.25426    1.000
    N2288    N        0.30043    0.54353    0.32512    1.000
    N2289    N        0.27777    0.54451    0.25462    1.000
    N2290    N        0.43385    0.55409    0.26890    1.000
    Si2291   Si       0.46188    0.57649    0.29262    1.000
    Si2292   Si       0.38975    0.56201    0.26365    1.000
    N2293    N        0.44021    0.58607    0.33318    1.000
    N2294    N        0.38510    0.59728    0.28965    1.000
    N2295    N        0.46859    0.53543    0.35636    1.000
    Si2296   Si       0.24252    0.59262    0.37581    1.000
    Si2297   Si       0.31509    0.56464    0.42525    1.000
    N2298    N        0.31518    0.55076    0.46566    1.000
    N2299    N        0.35768    0.56983    0.41163    1.000
    Si2300   Si       0.28663    0.56736    0.49458    1.000
    Si2301   Si       0.44286    0.57247    0.37548    1.000
    N2302    N        0.47311    0.58081    0.40878    1.000
    Si2303   Si       0.47250    0.56766    0.45088    1.000
    N2304    N        0.43753    0.57257    0.47526    1.000
    N2305    N        0.26212    0.55841    0.57778    1.000
    N2306    N        0.31091    0.57157    0.53088    1.000
    Si2307   Si       0.30522    0.55907    0.57380    1.000
    N2308    N        0.25610    0.53889    0.50382    1.000
    Si2309   Si       0.34789    0.59089    0.52131    1.000
    N2310    N        0.31604    0.59045    0.60064    1.000
    Si2311   Si       0.24254    0.57182    0.61660    1.000
    Si2312   Si       0.24774    0.53302    0.54635    1.000
    Si2313   Si       0.43216    0.55597    0.57764    1.000
    N2314    N        0.39722    0.54709    0.60387    1.000
    N2315    N        0.37244    0.56024    0.50232    1.000
    Si2316   Si       0.41394    0.54872    0.50321    1.000
    N2317    N        0.46837    0.54220    0.59246    1.000
    N2318    N        0.43301    0.59800    0.56804    1.000
    N2319    N        0.27387    0.56145    0.64502    1.000
    N2320    N        0.34719    0.56604    0.65678    1.000
    Si2321   Si       0.24912    0.59119    0.70817    1.000
    Si2322   Si       0.31176    0.55482    0.73872    1.000
    N2323    N        0.27770    0.55744    0.71099    1.000
    Si2324   Si       0.31165    0.58391    0.64502    1.000
    N2325    N        0.41697    0.57692    0.67127    1.000
    Si2326   Si       0.43980    0.54450    0.68796    1.000
    Si2327   Si       0.38878    0.55718    0.64459    1.000
    N2328    N        0.47634    0.56130    0.70776    1.000
    Si2329   Si       0.38729    0.53711    0.74128    1.000
    N2330    N        0.34318    0.56400    0.81826    1.000
    Si2331   Si       0.30374    0.57342    0.83372    1.000
    N2332    N        0.27916    0.58715    0.80198    1.000
    Si2333   Si       0.24943    0.54923    0.87150    1.000
    N2334    N        0.28611    0.53768    0.85009    1.000
    Si2335   Si       0.37485    0.57753    0.84281    1.000
    N2336    N        0.45353    0.56452    0.82440    1.000
    N2337    N        0.39590    0.54524    0.86211    1.000
    N2338    N        0.39120    0.57947    0.74495    1.000
    N2339    N        0.26568    0.56692    0.98112    1.000
    Si2340   Si       0.30453    0.57885    0.96871    1.000
    N2341    N        0.25052    0.57494    0.90591    1.000
    N2342    N        0.33275    0.54526    0.96704    1.000
    N2343    N        0.48882    0.58706    0.92852    1.000
    Si2344   Si       0.47421    0.58904    0.96822    1.000
    N2345    N        0.40781    0.58521    0.92373    1.000
    N2346    N        0.45286    0.55673    0.99283    1.000
    Si2347   Si       0.41827    0.54772    0.90647    1.000
    N2348    N        0.45622    0.54053    0.88864    1.000
    Si2349   Si       0.26190    0.60840    0.08048    1.000
    N2350    N        0.26236    0.61090    0.03680    1.000
    Si2351   Si       0.28543    0.63501    0.00989    1.000
    N2352    N        0.35429    0.62305    0.05272    1.000
    N2353    N        0.27163    0.64965    0.09400    1.000
    Si2354   Si       0.35311    0.59524    0.01861    1.000
    Si2355   Si       0.36610    0.61006    0.09294    1.000
    N2356    N        0.47796    0.63697    0.06121    1.000
    Si2357   Si       0.44660    0.61231    0.08190    1.000
    N2358    N        0.40693    0.62809    0.09064    1.000
    N2359    N        0.34640    0.63188    0.12431    1.000
    Si2360   Si       0.30281    0.63118    0.12157    1.000
    N2361    N        0.35556    0.63593    0.20203    1.000
    N2362    N        0.29568    0.63848    0.16501    1.000
    Si2363   Si       0.27978    0.60637    0.18978    1.000
    N2364    N        0.26318    0.61906    0.22927    1.000
    Si2365   Si       0.36193    0.64869    0.16070    1.000
    Si2366   Si       0.47512    0.63522    0.19612    1.000
    N2367    N        0.48567    0.65861    0.23095    1.000
    N2368    N        0.44643    0.60462    0.19136    1.000
    Si2369   Si       0.42420    0.61042    0.14829    1.000
    N2370    N        0.46027    0.60600    0.12376    1.000
    N2371    N        0.40579    0.64985    0.15473    1.000
    Si2372   Si       0.34917    0.62113    0.28308    1.000
    N2373    N        0.33376    0.61832    0.32305    1.000
    Si2374   Si       0.35792    0.64743    0.34236    1.000
    N2375    N        0.28231    0.60292    0.36384    1.000
    N2376    N        0.27229    0.60038    0.29554    1.000
    N2377    N        0.32583    0.59856    0.25595    1.000
    Si2378   Si       0.23921    0.62413    0.31122    1.000
    Si2379   Si       0.41823    0.61506    0.31031    1.000
    N2380    N        0.45028    0.61925    0.28010    1.000
    N2381    N        0.39937    0.65055    0.32571    1.000
    Si2382   Si       0.30518    0.63007    0.46452    1.000
    N2383    N        0.35008    0.63433    0.38200    1.000
    Si2384   Si       0.30762    0.62789    0.38946    1.000
    N2385    N        0.30668    0.60675    0.42694    1.000
    N2386    N        0.27392    0.60671    0.48291    1.000
    N2387    N        0.33924    0.61953    0.48993    1.000
    N2388    N        0.41722    0.60968    0.39295    1.000
    N2389    N        0.38199    0.63629    0.44042    1.000
    N2390    N        0.45158    0.64039    0.45499    1.000
    Si2391   Si       0.44678    0.61493    0.49159    1.000
    Si2392   Si       0.42355    0.64166    0.42360    1.000
    Si2393   Si       0.37421    0.60897    0.40722    1.000
    Si2394   Si       0.37517    0.64314    0.48214    1.000
    Si2395   Si       0.33841    0.62625    0.59013    1.000
    N2396    N        0.36259    0.61128    0.55554    1.000
    Si2397   Si       0.40492    0.62626    0.54987    1.000
    N2398    N        0.47198    0.63218    0.52437    1.000
    N2399    N        0.40803    0.62914    0.50654    1.000
    Si2400   Si       0.47454    0.60873    0.56071    1.000
    Si2401   Si       0.34682    0.64207    0.66409    1.000
    N2402    N        0.30810    0.62253    0.66537    1.000
    N2403    N        0.24193    0.62353    0.68029    1.000
    Si2404   Si       0.27638    0.65069    0.67588    1.000
    N2405    N        0.32449    0.59694    0.74729    1.000
    N2406    N        0.36469    0.63702    0.62428    1.000
    Si2407   Si       0.36434    0.61121    0.73681    1.000
    Si2408   Si       0.47611    0.65622    0.70382    1.000
    Si2409   Si       0.47439    0.64089    0.63185    1.000
    Si2410   Si       0.41429    0.62014    0.67632    1.000
    N2411    N        0.43176    0.63389    0.63709    1.000
    N2412    N        0.43339    0.64474    0.70842    1.000
    N2413    N        0.37248    0.62309    0.69469    1.000
    Si2414   Si       0.28917    0.61522    0.76849    1.000
    Si2415   Si       0.33034    0.63298    0.86235    1.000
    N2416    N        0.33892    0.65033    0.82406    1.000
    N2417    N        0.29775    0.60319    0.86438    1.000
    N2418    N        0.25506    0.61258    0.74351    1.000
    N2419    N        0.45847    0.63136    0.80263    1.000
    Si2420   Si       0.37748    0.63957    0.80353    1.000
    N2421    N        0.38055    0.64529    0.76082    1.000
    Si2422   Si       0.43942    0.60421    0.83152    1.000
    N2423    N        0.39769    0.60271    0.81613    1.000
    N2424    N        0.25254    0.65056    0.98217    1.000
    Si2425   Si       0.33463    0.63622    0.93678    1.000
    Si2426   Si       0.27843    0.60846    0.90241    1.000
    N2427    N        0.25920    0.64731    0.90881    1.000
    N2428    N        0.30891    0.60219    0.93258    1.000
    N2429    N        0.36488    0.60746    0.87195    1.000
    N2430    N        0.32818    0.65386    0.89816    1.000
    N2431    N        0.31753    0.60650    0.99939    1.000
    N2432    N        0.44520    0.62251    0.96869    1.000
    Si2433   Si       0.47311    0.61696    0.89923    1.000
    N2434    N        0.37650    0.63478    0.94218    1.000
    Si2435   Si       0.39842    0.62128    0.89716    1.000
    Si2436   Si       0.40466    0.60765    0.96038    1.000
    N2437    N        0.43673    0.61259    0.87364    1.000
    N2438    N        0.47580    0.65651    0.91961    1.000
    Si2439   Si       0.34557    0.66496    0.03999    1.000
    Si2440   Si       0.27398    0.68413    0.06687    1.000
    N2441    N        0.30211    0.66689    0.03513    1.000
    N2442    N        0.30503    0.70682    0.09108    1.000
    N2443    N        0.36290    0.68447    0.00332    1.000
    N2444    N        0.36887    0.68958    0.07084    1.000
    N2445    N        0.43797    0.68494    0.10314    1.000
    N2446    N        0.42418    0.67069    0.03434    1.000
    Si2447   Si       0.40784    0.66901    0.07625    1.000
    Si2448   Si       0.46928    0.67048    0.03388    1.000
    Si2449   Si       0.40383    0.69557    0.00509    1.000
    N2450    N        0.48403    0.71058    0.04937    1.000
    Si2451   Si       0.46975    0.71075    0.09155    1.000
    N2452    N        0.27789    0.70412    0.15895    1.000
    Si2453   Si       0.30433    0.67958    0.17840    1.000
    Si2454   Si       0.35229    0.67276    0.22794    1.000
    N2455    N        0.30856    0.68542    0.22215    1.000
    N2456    N        0.34445    0.68869    0.16471    1.000
    N2457    N        0.37957    0.70470    0.22194    1.000
    Si2458   Si       0.43320    0.68024    0.14573    1.000
    N2459    N        0.47069    0.66443    0.16367    1.000
    Si2460   Si       0.34423    0.69733    0.29717    1.000
    N2461    N        0.34411    0.68607    0.33866    1.000
    N2462    N        0.24793    0.68167    0.26145    1.000
    N2463    N        0.35001    0.66272    0.27029    1.000
    Si2464   Si       0.28405    0.70538    0.24936    1.000
    N2465    N        0.25315    0.66042    0.32944    1.000
    Si2466   Si       0.41053    0.68637    0.30346    1.000
    N2467    N        0.43845    0.68980    0.26869    1.000
    Si2468   Si       0.46895    0.65767    0.27195    1.000
    Si2469   Si       0.47567    0.71210    0.31770    1.000
    N2470    N        0.43275    0.71391    0.32702    1.000
    Si2471   Si       0.25090    0.66637    0.37240    1.000
    Si2472   Si       0.32600    0.70034    0.49184    1.000
    N2473    N        0.30811    0.67533    0.46107    1.000
    N2474    N        0.28962    0.66765    0.39091    1.000
    Si2475   Si       0.29839    0.69533    0.42391    1.000
    N2476    N        0.42688    0.68089    0.40620    1.000
    Si2477   Si       0.31788    0.69917    0.56221    1.000
    Si2478   Si       0.27681    0.67758    0.60009    1.000
    N2479    N        0.29773    0.70385    0.52439    1.000
    N2480    N        0.25074    0.67644    0.56509    1.000
    Si2481   Si       0.25305    0.70128    0.52853    1.000
    N2482    N        0.31309    0.66053    0.58305    1.000
    N2483    N        0.36448    0.68239    0.50271    1.000
    Si2484   Si       0.38960    0.69207    0.53940    1.000
    N2485    N        0.40342    0.66306    0.57113    1.000
    N2486    N        0.47390    0.68187    0.61771    1.000
    Si2487   Si       0.40302    0.65653    0.61467    1.000
    N2488    N        0.42654    0.71161    0.52363    1.000
    N2489    N        0.29036    0.67720    0.70881    1.000
    N2490    N        0.26520    0.67434    0.64119    1.000
    N2491    N        0.34421    0.68633    0.67172    1.000
    Si2492   Si       0.31501    0.70914    0.69304    1.000
    Si2493   Si       0.44405    0.71288    0.62410    1.000
    Si2494   Si       0.38472    0.70355    0.67429    1.000
    N2495    N        0.48128    0.69977    0.70888    1.000
    Si2496   Si       0.41256    0.67100    0.73948    1.000
    N2497    N        0.39784    0.70285    0.71420    1.000
    N2498    N        0.40669    0.69442    0.63714    1.000
    Si2499   Si       0.30942    0.67854    0.81046    1.000
    N2500    N        0.27915    0.68342    0.84298    1.000
    Si2501   Si       0.24856    0.66826    0.87053    1.000
    N2502    N        0.29292    0.65791    0.77581    1.000
    N2503    N        0.34819    0.71399    0.86358    1.000
    Si2504   Si       0.26744    0.68039    0.74577    1.000
    N2505    N        0.46855    0.68254    0.83936    1.000
    Si2506   Si       0.44189    0.67147    0.80669    1.000
    N2507    N        0.40222    0.67199    0.82374    1.000
    N2508    N        0.44222    0.68952    0.76717    1.000
    Si2509   Si       0.38729    0.69294    0.85979    1.000
    Si2510   Si       0.48397    0.69451    0.75290    1.000
    N2511    N        0.23852    0.70931    0.88345    1.000
    N2512    N        0.31226    0.66347    0.96357    1.000
    Si2513   Si       0.33526    0.69890    0.97488    1.000
    Si2514   Si       0.27192    0.66761    0.94737    1.000
    N2515    N        0.25183    0.70797    0.95375    1.000
    N2516    N        0.35884    0.70881    0.93800    1.000
    N2517    N        0.48415    0.67668    0.99058    1.000
    Si2518   Si       0.45490    0.66289    0.95877    1.000
    N2519    N        0.41923    0.68706    0.96358    1.000
    N2520    N        0.39769    0.66577    0.89288    1.000
    Si2521   Si       0.38730    0.67662    0.93488    1.000
    N2522    N        0.27344    0.75161    0.04956    1.000
    Si2523   Si       0.30517    0.75612    0.02005    1.000
    N2524    N        0.34469    0.75032    0.03931    1.000
    Si2525   Si       0.34248    0.72580    0.07976    1.000
    Si2526   Si       0.27532    0.72022    0.12015    1.000
    N2527    N        0.36054    0.75088    0.11036    1.000
    N2528    N        0.23965    0.70886    0.09641    1.000
    N2529    N        0.44447    0.74650    0.09749    1.000
    N2530    N        0.41785    0.73365    0.02037    1.000
    Si2531   Si       0.38645    0.76289    0.02734    1.000
    Si2532   Si       0.46124    0.74163    0.01966    1.000
    N2533    N        0.28582    0.76247    0.12163    1.000
    N2534    N        0.25524    0.73517    0.23240    1.000
    N2535    N        0.36053    0.75629    0.17886    1.000
    N2536    N        0.47506    0.73947    0.21706    1.000
    Si2537   Si       0.37891    0.71689    0.17967    1.000
    N2538    N        0.41644    0.71957    0.15824    1.000
    N2539    N        0.47423    0.76346    0.15352    1.000
    Si2540   Si       0.43397    0.75258    0.13854    1.000
    Si2541   Si       0.29527    0.74359    0.31344    1.000
    N2542    N        0.30938    0.74455    0.35427    1.000
    N2543    N        0.25342    0.73031    0.31755    1.000
    Si2544   Si       0.34350    0.71967    0.36854    1.000
    N2545    N        0.35700    0.76603    0.24558    1.000
    N2546    N        0.30900    0.71624    0.28244    1.000
    Si2547   Si       0.45759    0.72983    0.25529    1.000
    Si2548   Si       0.40203    0.74680    0.32247    1.000
    N2549    N        0.38002    0.74081    0.36255    1.000
    Si2550   Si       0.38760    0.73595    0.25122    1.000
    N2551    N        0.42679    0.75877    0.25636    1.000
    N2552    N        0.38245    0.71837    0.29179    1.000
    Si2553   Si       0.46251    0.76504    0.36641    1.000
    Si2554   Si       0.33509    0.75378    0.43509    1.000
    N2555    N        0.26439    0.72188    0.42572    1.000
    N2556    N        0.32716    0.74144    0.47558    1.000
    Si2557   Si       0.25113    0.76601    0.41569    1.000
    N2558    N        0.33325    0.71769    0.41074    1.000
    N2559    N        0.25531    0.77561    0.37265    1.000
    Si2560   Si       0.39517    0.76750    0.39287    1.000
    N2561    N        0.45682    0.71865    0.45969    1.000
    Si2562   Si       0.44246    0.73902    0.49430    1.000
    N2563    N        0.43771    0.75233    0.40043    1.000
    Si2564   Si       0.45050    0.71413    0.41620    1.000
    Si2565   Si       0.35384    0.75516    0.57142    1.000
    Si2566   Si       0.25809    0.74139    0.59086    1.000
    N2567    N        0.34763    0.76223    0.61379    1.000
    N2568    N        0.29503    0.71787    0.59591    1.000
    N2569    N        0.24297    0.74007    0.55165    1.000
    N2570    N        0.35785    0.71254    0.56174    1.000
    Si2571   Si       0.32102    0.77174    0.50699    1.000
    N2572    N        0.47611    0.75079    0.51958    1.000
    N2573    N        0.44639    0.73352    0.58663    1.000
    Si2574   Si       0.46157    0.71822    0.54844    1.000
    Si2575   Si       0.42536    0.77233    0.58129    1.000
    Si2576   Si       0.30955    0.74543    0.62670    1.000
    N2577    N        0.29422    0.74190    0.66800    1.000
    N2578    N        0.33392    0.73089    0.72864    1.000
    Si2579   Si       0.25814    0.75852    0.68651    1.000
    N2580    N        0.47687    0.76919    0.71733    1.000
    N2581    N        0.45999    0.73860    0.65451    1.000
    N2582    N        0.37561    0.74736    0.67475    1.000
    Si2583   Si       0.37496    0.74273    0.71831    1.000
    Si2584   Si       0.48454    0.73644    0.68874    1.000
    Si2585   Si       0.37776    0.77604    0.64221    1.000
    Si2586   Si       0.30997    0.73616    0.76509    1.000
    Si2587   Si       0.33414    0.74188    0.83254    1.000
    N2588    N        0.29171    0.75163    0.84062    1.000
    N2589    N        0.26979    0.71980    0.76011    1.000
    Si2590   Si       0.24375    0.75332    0.75644    1.000
    N2591    N        0.32899    0.71598    0.79818    1.000
    N2592    N        0.46522    0.74769    0.82071    1.000
    Si2593   Si       0.45861    0.72172    0.85410    1.000
    Si2594   Si       0.28041    0.72040    0.86938    1.000
    Si2595   Si       0.34248    0.72778    0.90364    1.000
    N2596    N        0.29935    0.72516    0.90891    1.000
    N2597    N        0.30828    0.73182    0.98355    1.000
    Si2598   Si       0.28530    0.73592    0.94802    1.000
    N2599    N        0.35274    0.76962    0.90150    1.000
    N2600    N        0.46845    0.74727    0.88734    1.000
    N2601    N        0.41622    0.72286    0.86707    1.000
    N2602    N        0.42461    0.77369    0.93415    1.000
    N2603    N        0.47440    0.74102    0.97656    1.000
    Si2604   Si       0.42637    0.75720    0.89349    1.000
    N2605    N        0.28806    0.81665    0.07300    1.000
    N2606    N        0.30283    0.79818    0.00647    1.000
    Si2607   Si       0.27212    0.77816    0.08375    1.000
    Si2608   Si       0.30660    0.82874    0.03764    1.000
    N2609    N        0.45919    0.81770    0.09000    1.000
    N2610    N        0.40123    0.79353    0.05493    1.000
    Si2611   Si       0.45351    0.81952    0.01953    1.000
    Si2612   Si       0.43682    0.78302    0.07710    1.000
    N2613    N        0.46593    0.78059    0.03932    1.000
    Si2614   Si       0.29997    0.79097    0.14968    1.000
    N2615    N        0.33933    0.80925    0.14761    1.000
    N2616    N        0.33579    0.82153    0.21670    1.000
    N2617    N        0.27327    0.82238    0.13816    1.000
    Si2618   Si       0.33749    0.77768    0.20863    1.000
    Si2619   Si       0.25805    0.77225    0.21095    1.000
    N2620    N        0.29756    0.77351    0.19180    1.000
    N2621    N        0.25333    0.80249    0.24319    1.000
    N2622    N        0.44533    0.80249    0.19898    1.000
    Si2623   Si       0.42355    0.82228    0.16630    1.000
    Si2624   Si       0.48109    0.77733    0.19508    1.000
    N2625    N        0.41104    0.78806    0.14421    1.000
    Si2626   Si       0.36972    0.77759    0.14051    1.000
    Si2627   Si       0.43551    0.79804    0.23989    1.000
    N2628    N        0.31926    0.81537    0.35636    1.000
    Si2629   Si       0.26241    0.80855    0.28478    1.000
    N2630    N        0.29810    0.78567    0.29875    1.000
    Si2631   Si       0.31333    0.82132    0.31490    1.000
    Si2632   Si       0.36775    0.80087    0.27068    1.000
    Si2633   Si       0.40669    0.80626    0.33486    1.000
    N2634    N        0.38230    0.78502    0.30747    1.000
    N2635    N        0.46487    0.82462    0.25830    1.000
    N2636    N        0.39697    0.82084    0.24701    1.000
    N2637    N        0.43523    0.77510    0.33607    1.000
    Si2638   Si       0.28955    0.81106    0.44958    1.000
    N2639    N        0.30412    0.78016    0.41877    1.000
    N2640    N        0.24673    0.80078    0.44317    1.000
    N2641    N        0.29209    0.80003    0.49136    1.000
    Si2642   Si       0.29804    0.78210    0.37506    1.000
    Si2643   Si       0.44681    0.81195    0.47543    1.000
    N2644    N        0.39175    0.80927    0.37601    1.000
    N2645    N        0.42411    0.77440    0.48378    1.000
    Si2646   Si       0.47745    0.82891    0.40741    1.000
    N2647    N        0.48004    0.81771    0.45036    1.000
    Si2648   Si       0.38765    0.78991    0.46867    1.000
    N2649    N        0.37387    0.77161    0.43008    1.000
    Si2650   Si       0.26012    0.81890    0.51560    1.000
    Si2651   Si       0.30708    0.80820    0.57814    1.000
    N2652    N        0.27293    0.82650    0.55577    1.000
    N2653    N        0.27862    0.77946    0.60773    1.000
    N2654    N        0.35821    0.79469    0.49995    1.000
    N2655    N        0.32014    0.77413    0.55051    1.000
    N2656    N        0.31053    0.82846    0.62174    1.000
    Si2657   Si       0.36726    0.81246    0.54053    1.000
    N2658    N        0.44785    0.80811    0.57327    1.000
    N2659    N        0.38818    0.77928    0.56045    1.000
    Si2660   Si       0.48950    0.81452    0.59278    1.000
    N2661    N        0.46134    0.83135    0.50995    1.000
    N2662    N        0.24015    0.78769    0.65895    1.000
    N2663    N        0.32825    0.82200    0.72474    1.000
    Si2664   Si       0.26944    0.81274    0.63839    1.000
    N2665    N        0.26493    0.77822    0.72633    1.000
    Si2666   Si       0.29502    0.80382    0.74499    1.000
    Si2667   Si       0.37155    0.81383    0.73336    1.000
    N2668    N        0.45869    0.82630    0.74191    1.000
    N2669    N        0.41535    0.77643    0.62289    1.000
    Si2670   Si       0.45110    0.78089    0.64683    1.000
    N2671    N        0.39652    0.77740    0.73152    1.000
    N2672    N        0.37260    0.81917    0.65034    1.000
    Si2673   Si       0.43843    0.79309    0.71975    1.000
    N2674    N        0.43441    0.80319    0.67816    1.000
    Si2675   Si       0.34065    0.80588    0.80219    1.000
    N2676    N        0.25628    0.81965    0.81924    1.000
    N2677    N        0.30766    0.78045    0.77998    1.000
    N2678    N        0.35435    0.78122    0.83541    1.000
    Si2679   Si       0.27557    0.78156    0.81489    1.000
    N2680    N        0.37008    0.82288    0.77599    1.000
    Si2681   Si       0.44103    0.82268    0.85068    1.000
    Si2682   Si       0.47224    0.82331    0.78444    1.000
    N2683    N        0.48371    0.80965    0.85967    1.000
    N2684    N        0.43584    0.82265    0.80818    1.000
    N2685    N        0.41545    0.79249    0.86939    1.000
    N2686    N        0.30372    0.81537    0.88636    1.000
    Si2687   Si       0.27269    0.80643    0.97324    1.000
    Si2688   Si       0.31941    0.79424    0.92065    1.000
    N2689    N        0.33503    0.82244    0.95156    1.000
    N2690    N        0.28592    0.77817    0.94334    1.000
    Si2691   Si       0.34349    0.81110    0.99269    1.000
    N2692    N        0.23852    0.80021    0.88361    1.000
    Si2693   Si       0.26472    0.82825    0.90316    1.000
    Si2694   Si       0.40838    0.80172    0.96124    1.000
    Si2695   Si       0.37177    0.79429    0.87291    1.000
    Si2696   Si       0.46419    0.77453    0.95268    1.000
    N2697    N        0.38005    0.78880    0.98967    1.000
    N2698    N        0.44811    0.80499    0.97985    1.000
    N2699    N        0.28581    0.86661    0.03174    1.000
    Si2700   Si       0.28381    0.84885    0.10372    1.000
    N2701    N        0.25113    0.87553    0.09208    1.000
    N2702    N        0.31969    0.86844    0.11233    1.000
    Si2703   Si       0.36150    0.87532    0.10100    1.000
    Si2704   Si       0.25401    0.89027    0.04968    1.000
    N2705    N        0.35074    0.83375    0.03140    1.000
    N2706    N        0.39578    0.85161    0.09195    1.000
    N2707    N        0.42119    0.84907    0.02634    1.000
    Si2708   Si       0.43746    0.85146    0.10430    1.000
    Si2709   Si       0.45708    0.88037    0.03255    1.000
    N2710    N        0.46093    0.88265    0.08038    1.000
    N2711    N        0.48694    0.84520    0.03016    1.000
    Si2712   Si       0.38668    0.83393    0.05110    1.000
    Si2713   Si       0.34430    0.84195    0.17635    1.000
    Si2714   Si       0.27811    0.87818    0.20495    1.000
    N2715    N        0.31169    0.87138    0.17860    1.000
    N2716    N        0.35678    0.88314    0.22970    1.000
    N2717    N        0.28990    0.87012    0.24568    1.000
    N2718    N        0.42466    0.87799    0.24515    1.000
    N2719    N        0.38896    0.84413    0.18310    1.000
    Si2720   Si       0.39372    0.85724    0.22335    1.000
    N2721    N        0.44809    0.85407    0.14650    1.000
    Si2722   Si       0.47050    0.88410    0.16952    1.000
    Si2723   Si       0.27680    0.88032    0.28461    1.000
    N2724    N        0.27716    0.84307    0.30536    1.000
    N2725    N        0.34405    0.83651    0.28624    1.000
    N2726    N        0.35511    0.86622    0.34688    1.000
    Si2727   Si       0.32862    0.85376    0.24591    1.000
    Si2728   Si       0.37600    0.86063    0.30879    1.000
    Si2729   Si       0.44231    0.85640    0.27863    1.000
    N2730    N        0.41460    0.84185    0.30954    1.000
    N2731    N        0.35785    0.88237    0.47702    1.000
    Si2732   Si       0.26583    0.88129    0.42530    1.000
    N2733    N        0.29760    0.85177    0.43743    1.000
    Si2734   Si       0.33699    0.87253    0.43872    1.000
    N2735    N        0.25392    0.85445    0.48913    1.000
    Si2736   Si       0.35263    0.83499    0.37490    1.000
    N2737    N        0.36110    0.84695    0.41450    1.000
    N2738    N        0.44005    0.85235    0.40305    1.000
    N2739    N        0.40861    0.82989    0.45871    1.000
    Si2740   Si       0.46196    0.88911    0.40936    1.000
    Si2741   Si       0.39565    0.86279    0.48966    1.000
    Si2742   Si       0.40238    0.83461    0.41596    1.000
    Si2743   Si       0.24731    0.85420    0.57708    1.000
    Si2744   Si       0.34312    0.87877    0.57326    1.000
    N2745    N        0.33874    0.83595    0.56333    1.000
    N2746    N        0.35891    0.88310    0.61252    1.000
    N2747    N        0.24420    0.84363    0.61949    1.000
    N2748    N        0.44167    0.87817    0.56105    1.000
    N2749    N        0.39851    0.84019    0.52715    1.000
    Si2750   Si       0.48362    0.88277    0.57582    1.000
    Si2751   Si       0.43686    0.83982    0.54404    1.000
    N2752    N        0.33635    0.86866    0.67445    1.000
    Si2753   Si       0.34415    0.84919    0.63690    1.000
    Si2754   Si       0.30569    0.85549    0.70259    1.000
    N2755    N        0.27415    0.83769    0.67789    1.000
    Si2756   Si       0.40001    0.88354    0.73000    1.000
    Si2757   Si       0.48643    0.85142    0.71988    1.000
    Si2758   Si       0.40551    0.83612    0.67234    1.000
    N2759    N        0.41871    0.87130    0.65078    1.000
    N2760    N        0.48072    0.86435    0.67845    1.000
    N2761    N        0.39748    0.84382    0.71427    1.000
    Si2762   Si       0.44808    0.89238    0.67209    1.000
    Si2763   Si       0.28278    0.85085    0.79960    1.000
    Si2764   Si       0.32697    0.84347    0.86278    1.000
    N2765    N        0.31852    0.83793    0.82016    1.000
    N2766    N        0.27527    0.83976    0.75889    1.000
    N2767    N        0.31499    0.88525    0.87054    1.000
    N2768    N        0.26760    0.88818    0.81670    1.000
    Si2769   Si       0.40196    0.84664    0.79559    1.000
    N2770    N        0.38578    0.85831    0.83209    1.000
    N2771    N        0.41136    0.88327    0.77213    1.000
    Si2772   Si       0.39276    0.86584    0.87220    1.000
    N2773    N        0.43607    0.86197    0.87301    1.000
    N2774    N        0.25050    0.86197    0.87929    1.000
    N2775    N        0.26067    0.83722    0.94509    1.000
    Si2776   Si       0.36099    0.85021    0.93208    1.000
    N2777    N        0.45424    0.88439    0.98633    1.000
    N2778    N        0.36450    0.83699    0.88907    1.000
    Si2779   Si       0.41312    0.86824    0.98498    1.000
    Si2780   Si       0.46970    0.88661    0.88362    1.000
    N2781    N        0.39729    0.84424    0.95494    1.000
    N2782    N        0.28296    0.92364    0.06118    1.000
    Si2783   Si       0.31490    0.89813    0.04163    1.000
    N2784    N        0.35227    0.89785    0.06442    1.000
    N2785    N        0.32089    0.91714    0.00338    1.000
    Si2786   Si       0.27483    0.94357    0.09852    1.000
    N2787    N        0.24788    0.94205    0.00321    1.000
    Si2788   Si       0.29151    0.95059    0.00041    1.000
    Si2789   Si       0.37040    0.93701    0.07216    1.000
    Si2790   Si       0.40768    0.93708    0.00986    1.000
    N2791    N        0.44077    0.92182    0.03616    1.000
    Si2792   Si       0.44553    0.92352    0.08015    1.000
    N2793    N        0.40623    0.92247    0.09477    1.000
    Si2794   Si       0.24117    0.93292    0.23362    1.000
    Si2795   Si       0.32085    0.90451    0.14943    1.000
    N2796    N        0.33374    0.93560    0.17908    1.000
    N2797    N        0.28427    0.92569    0.13597    1.000
    Si2798   Si       0.35215    0.92484    0.21868    1.000
    N2799    N        0.27135    0.92164    0.20030    1.000
    Si2800   Si       0.24455    0.93224    0.16452    1.000
    N2801    N        0.32205    0.94787    0.23963    1.000
    N2802    N        0.36458    0.89843    0.13889    1.000
    N2803    N        0.39171    0.94046    0.21462    1.000
    Si2804   Si       0.38418    0.93686    0.13235    1.000
    Si2805   Si       0.42749    0.91862    0.22895    1.000
    N2806    N        0.45194    0.91203    0.19494    1.000
    N2807    N        0.32945    0.93650    0.35677    1.000
    N2808    N        0.26308    0.92212    0.27423    1.000
    Si2809   Si       0.34594    0.90715    0.33125    1.000
    Si2810   Si       0.30541    0.93289    0.27627    1.000
    N2811    N        0.31626    0.89905    0.30073    1.000
    Si2812   Si       0.24310    0.91636    0.36158    1.000
    Si2813   Si       0.24516    0.94774    0.30534    1.000
    Si2814   Si       0.42554    0.91849    0.30309    1.000
    N2815    N        0.38536    0.90335    0.30541    1.000
    N2816    N        0.43630    0.93979    0.26670    1.000
    N2817    N        0.46907    0.90794    0.37109    1.000
    Si2818   Si       0.45878    0.94848    0.36158    1.000
    N2819    N        0.46226    0.88934    0.30065    1.000
    N2820    N        0.27525    0.89902    0.38539    1.000
    Si2821   Si       0.30822    0.92845    0.39255    1.000
    N2822    N        0.26936    0.91184    0.45552    1.000
    N2823    N        0.33651    0.91048    0.42010    1.000
    Si2824   Si       0.36139    0.93746    0.44240    1.000
    Si2825   Si       0.26279    0.89538    0.49495    1.000
    N2826    N        0.34225    0.94662    0.47986    1.000
    N2827    N        0.44896    0.91457    0.44075    1.000
    Si2828   Si       0.44972    0.92138    0.48352    1.000
    Si2829   Si       0.28325    0.92451    0.55810    1.000
    N2830    N        0.31226    0.90959    0.58495    1.000
    N2831    N        0.29876    0.91015    0.51877    1.000
    Si2832   Si       0.34031    0.91065    0.50651    1.000
    N2833    N        0.24887    0.89575    0.56474    1.000
    Si2834   Si       0.33631    0.92355    0.61902    1.000
    N2835    N        0.36384    0.90032    0.54182    1.000
    N2836    N        0.41012    0.92086    0.59625    1.000
    Si2837   Si       0.40899    0.90690    0.54727    1.000
    Si2838   Si       0.44902    0.93697    0.60674    1.000
    N2839    N        0.48085    0.92640    0.58051    1.000
    N2840    N        0.41983    0.89790    0.50328    1.000
    N2841    N        0.48636    0.92278    0.50961    1.000
    N2842    N        0.30175    0.89796    0.71573    1.000
    Si2843   Si       0.27101    0.93906    0.66765    1.000
    Si2844   Si       0.33588    0.91068    0.68677    1.000
    N2845    N        0.30997    0.93054    0.65308    1.000
    Si2846   Si       0.28580    0.93323    0.73838    1.000
    N2847    N        0.24747    0.90129    0.66342    1.000
    N2848    N        0.36820    0.91283    0.72365    1.000
    N2849    N        0.45813    0.92605    0.64870    1.000
    N2850    N        0.37548    0.92295    0.66317    1.000
    Si2851   Si       0.46349    0.92231    0.73812    1.000
    Si2852   Si       0.39632    0.94308    0.69698    1.000
    Si2853   Si       0.39385    0.89948    0.63042    1.000
    N2854    N        0.43043    0.90996    0.71040    1.000
    Si2855   Si       0.36184    0.94123    0.75450    1.000
    Si2856   Si       0.27385    0.89376    0.85942    1.000
    N2857    N        0.25794    0.94500    0.77094    1.000
    N2858    N        0.26133    0.93411    0.86663    1.000
    Si2859   Si       0.24067    0.91184    0.79240    1.000
    N2860    N        0.37756    0.94151    0.79364    1.000
    N2861    N        0.43125    0.92373    0.83427    1.000
    Si2862   Si       0.41738    0.92215    0.79340    1.000
    Si2863   Si       0.46943    0.94278    0.82898    1.000
    Si2864   Si       0.40822    0.93695    0.86854    1.000
    N2865    N        0.44464    0.94729    0.77039    1.000
    Si2866   Si       0.35124    0.91506    0.97373    1.000
    Si2867   Si       0.34144    0.90510    0.89719    1.000
    Si2868   Si       0.24285    0.93774    0.95978    1.000
    N2869    N        0.32420    0.94579    0.89614    1.000
    N2870    N        0.34464    0.89019    0.93713    1.000
    N2871    N        0.38244    0.90681    0.88349    1.000
    N2872    N        0.39021    0.90354    0.99081    1.000
    N2873    N        0.48408    0.94788    0.98411    1.000
    N2874    N        0.46864    0.90734    0.92167    1.000
    Si2875   Si       0.48236    0.90652    0.96215    1.000
    N2876    N        0.30910    0.98238    0.01985    1.000
    N2877    N        0.29286    0.98527    0.09744    1.000
    Si2878   Si       0.35160    0.98716    0.02584    1.000
    Si2879   Si       0.33613    0.99727    0.10075    1.000
    N2880    N        0.35504    0.95809    0.10653    1.000
    Si2881   Si       0.48191    0.98835    0.06477    1.000
    N2882    N        0.46159    0.96215    0.09315    1.000
    N2883    N        0.45665    0.00007    0.03227    1.000
    N2884    N        0.37712    0.95622    0.03550    1.000
    N2885    N        0.30718    0.99816    0.19138    1.000
    N2886    N        0.24835    0.97718    0.16103    1.000
    Si2887   Si       0.30108    0.95560    0.19904    1.000
    N2888    N        0.25228    0.97482    0.23197    1.000
    N2889    N        0.48633    0.97745    0.15523    1.000
    Si2890   Si       0.40330    0.97535    0.19158    1.000
    N2891    N        0.41572    0.96006    0.14994    1.000
    Si2892   Si       0.44797    0.98017    0.13056    1.000
    Si2893   Si       0.47440    0.99695    0.19380    1.000
    N2894    N        0.43807    0.98738    0.21627    1.000
    N2895    N        0.31032    0.97000    0.29752    1.000
    Si2896   Si       0.30530    0.96847    0.33978    1.000
    Si2897   Si       0.31833    0.99171    0.25962    1.000
    N2898    N        0.30934    0.00492    0.36270    1.000
    N2899    N        0.26660    0.94982    0.34459    1.000
    Si2900   Si       0.43600    0.98502    0.26063    1.000
    Si2901   Si       0.40916    0.98989    0.33171    1.000
    N2902    N        0.47229    0.00031    0.27967    1.000
    N2903    N        0.40579    0.00053    0.29066    1.000
    N2904    N        0.37635    0.00254    0.35657    1.000
    Si2905   Si       0.47700    0.00247    0.32167    1.000
    N2906    N        0.42524    0.94786    0.33498    1.000
    Si2907   Si       0.30370    0.00028    0.40562    1.000
    N2908    N        0.29060    0.96134    0.41527    1.000
    N2909    N        0.27923    0.98008    0.48308    1.000
    Si2910   Si       0.26464    0.95700    0.44996    1.000
    Si2911   Si       0.32139    0.98219    0.49365    1.000
    Si2912   Si       0.38055    0.99597    0.40226    1.000
    N2913    N        0.39028    0.95738    0.42089    1.000
    N2914    N        0.43591    0.96355    0.47759    1.000
    Si2915   Si       0.43202    0.95599    0.43436    1.000
    N2916    N        0.45402    0.96971    0.40010    1.000
    N2917    N        0.27188    0.96651    0.56266    1.000
    N2918    N        0.33698    0.99102    0.53350    1.000
    Si2919   Si       0.30000    0.99855    0.55732    1.000
    N2920    N        0.35659    0.96041    0.60653    1.000
    Si2921   Si       0.35003    0.00398    0.60995    1.000
    N2922    N        0.40861    0.95456    0.54382    1.000
    Si2923   Si       0.43072    0.98172    0.51882    1.000
    N2924    N        0.47004    0.98543    0.53739    1.000
    N2925    N        0.43333    0.97780    0.60629    1.000
    Si2926   Si       0.39475    0.96375    0.58581    1.000
    N2927    N        0.38431    0.01069    0.58376    1.000
    N2928    N        0.27486    0.95880    0.70507    1.000
    Si2929   Si       0.27136    0.00232    0.70298    1.000
    N2930    N        0.41788    0.97456    0.67723    1.000
    N2931    N        0.48554    0.99252    0.66444    1.000
    N2932    N        0.37815    0.97307    0.72687    1.000
    N2933    N        0.48251    0.94988    0.71008    1.000
    Si2934   Si       0.45937    0.96051    0.67370    1.000
    Si2935   Si       0.30873    0.97427    0.79143    1.000
    N2936    N        0.34406    0.99922    0.80612    1.000
    Si2937   Si       0.29669    0.95928    0.86558    1.000
    Si2938   Si       0.35775    0.96366    0.82370    1.000
    N2939    N        0.27729    0.00439    0.79283    1.000
    Si2940   Si       0.24318    0.98702    0.77198    1.000
    N2941    N        0.28756    0.00286    0.86294    1.000
    N2942    N        0.31730    0.95027    0.82787    1.000
    N2943    N        0.32044    0.95116    0.75800    1.000
    N2944    N        0.38373    0.97202    0.85628    1.000
    N2945    N        0.45760    0.98444    0.82522    1.000
    Si2946   Si       0.45010    0.99032    0.78291    1.000
    Si2947   Si       0.31818    0.96487    0.93363    1.000
    N2948    N        0.35323    0.95347    0.95608    1.000
    N2949    N        0.28547    0.94885    0.95591    1.000
    N2950    N        0.31526    0.00663    0.92461    1.000
    N2951    N        0.41803    0.96711    0.98060    1.000
    Si2952   Si       0.45674    0.98021    0.99360    1.000
    Si2953   Si       0.38287    0.98350    0.96132    1.000
    Si2954   Si       0.40609    0.99537    0.88405    1.000
    N2955    N        0.43263    0.96333    0.89336    1.000
    N2956    N        0.38600    0.00199    0.92243    1.000
    Si2957   Si       0.47145    0.94710    0.90473    1.000
    N2958    N        0.57997    0.03502    0.01020    1.000
    N2959    N        0.49704    0.01775    0.09299    1.000
    Si2960   Si       0.49482    0.06193    0.08983    1.000
    N2961    N        0.65724    0.04065    0.00965    1.000
    Si2962   Si       0.69252    0.05052    0.10923    1.000
    N2963    N        0.69629    0.05317    0.06619    1.000
    N2964    N        0.62867    0.05210    0.07464    1.000
    Si2965   Si       0.63679    0.01227    0.08899    1.000
    N2966    N        0.66496    0.01838    0.12153    1.000
    Si2967   Si       0.65879    0.06446    0.04690    1.000
    Si2968   Si       0.73595    0.06588    0.05274    1.000
    N2969    N        0.59770    0.05958    0.13272    1.000
    N2970    N        0.55049    0.02102    0.14470    1.000
    Si2971   Si       0.59522    0.01901    0.14663    1.000
    N2972    N        0.61003    0.02936    0.24383    1.000
    Si2973   Si       0.55421    0.06272    0.13214    1.000
    N2974    N        0.50186    0.05777    0.24932    1.000
    Si2975   Si       0.74168    0.01022    0.15919    1.000
    N2976    N        0.73135    0.03756    0.12568    1.000
    Si2977   Si       0.71875    0.03309    0.21540    1.000
    N2978    N        0.69874    0.01476    0.18000    1.000
    N2979    N        0.62338    0.00725    0.17638    1.000
    Si2980   Si       0.54737    0.02350    0.32223    1.000
    N2981    N        0.50360    0.03386    0.33093    1.000
    N2982    N        0.56739    0.05902    0.34088    1.000
    Si2983   Si       0.50686    0.01477    0.25696    1.000
    N2984    N        0.60425    0.01209    0.30919    1.000
    N2985    N        0.54478    0.01039    0.27996    1.000
    N2986    N        0.67078    0.03536    0.28085    1.000
    Si2987   Si       0.64049    0.03712    0.31407    1.000
    N2988    N        0.66904    0.02638    0.34399    1.000
    N2989    N        0.51487    0.04611    0.46250    1.000
    Si2990   Si       0.51759    0.03570    0.42120    1.000
    N2991    N        0.59707    0.02033    0.39433    1.000
    Si2992   Si       0.58016    0.05819    0.38200    1.000
    Si2993   Si       0.60902    0.01770    0.48609    1.000
    N2994    N        0.57431    0.04220    0.49105    1.000
    Si2995   Si       0.53310    0.02635    0.49620    1.000
    N2996    N        0.63850    0.03020    0.45703    1.000
    Si2997   Si       0.67202    0.05491    0.44346    1.000
    Si2998   Si       0.68850    0.05485    0.36951    1.000
    N2999    N        0.68672    0.03681    0.40914    1.000
    N3000    N        0.70481    0.06159    0.47149    1.000
    Si3001   Si       0.72896    0.02723    0.47589    1.000
    N3002    N        0.51631    0.03755    0.53479    1.000
    Si3003   Si       0.60602    0.03584    0.59831    1.000
    Si3004   Si       0.49035    0.01830    0.56301    1.000
    N3005    N        0.51912    0.00959    0.59721    1.000
    N3006    N        0.73232    0.01898    0.51892    1.000
    N3007    N        0.62628    0.01910    0.52500    1.000
    Si3008   Si       0.70410    0.03140    0.54785    1.000
    N3009    N        0.72769    0.05226    0.58006    1.000
    Si3010   Si       0.63612    0.06147    0.53397    1.000
    N3011    N        0.67892    0.06238    0.53363    1.000
    N3012    N        0.57918    0.06253    0.62255    1.000
    Si3013   Si       0.50926    0.01905    0.63816    1.000
    N3014    N        0.59682    0.04821    0.69714    1.000
    Si3015   Si       0.55685    0.03087    0.69776    1.000
    Si3016   Si       0.60979    0.05941    0.65720    1.000
    N3017    N        0.49143    0.05882    0.64238    1.000
    N3018    N        0.54555    0.00892    0.66258    1.000
    N3019    N        0.52696    0.06180    0.70223    1.000
    Si3020   Si       0.72821    0.03850    0.62081    1.000
    Si3021   Si       0.62913    0.04274    0.72530    1.000
    Si3022   Si       0.70167    0.02465    0.69738    1.000
    N3023    N        0.69805    0.03409    0.65236    1.000
    N3024    N        0.63138    0.02916    0.63336    1.000
    N3025    N        0.67350    0.05292    0.71555    1.000
    N3026    N        0.53846    0.05489    0.76893    1.000
    N3027    N        0.56837    0.04756    0.83342    1.000
    Si3028   Si       0.60938    0.04354    0.84875    1.000
    Si3029   Si       0.49183    0.05506    0.79070    1.000
    N3030    N        0.49209    0.03701    0.87014    1.000
    Si3031   Si       0.53034    0.01255    0.76371    1.000
    Si3032   Si       0.66948    0.05262    0.81488    1.000
    N3033    N        0.68061    0.03269    0.85357    1.000
    N3034    N        0.74033    0.05255    0.82754    1.000
    N3035    N        0.66527    0.01029    0.79721    1.000
    N3036    N        0.52759    0.03178    0.92949    1.000
    Si3037   Si       0.51825    0.01063    0.89311    1.000
    N3038    N        0.61357    0.05185    0.89048    1.000
    N3039    N        0.72228    0.02931    0.97377    1.000
    N3040    N        0.72793    0.04664    0.90470    1.000
    Si3041   Si       0.62450    0.03638    0.92984    1.000
    Si3042   Si       0.67899    0.02786    0.97247    1.000
    N3043    N        0.66584    0.02570    0.92919    1.000
    Si3044   Si       0.68546    0.04672    0.89508    1.000
    N3045    N        0.59639    0.10936    0.07973    1.000
    Si3046   Si       0.55339    0.10904    0.07102    1.000
    N3047    N        0.53636    0.09796    0.03207    1.000
    N3048    N        0.60164    0.10248    0.01258    1.000
    N3049    N        0.53539    0.07741    0.09608    1.000
    Si3050   Si       0.49385    0.09386    0.02058    1.000
    Si3051   Si       0.56763    0.07523    0.01163    1.000
    Si3052   Si       0.62175    0.08844    0.10928    1.000
    N3053    N        0.66001    0.10903    0.04708    1.000
    N3054    N        0.72871    0.09654    0.02579    1.000
    N3055    N        0.66995    0.08577    0.11677    1.000
    Si3056   Si       0.61870    0.12528    0.04468    1.000
    Si3057   Si       0.69768    0.12641    0.03979    1.000
    Si3058   Si       0.50147    0.10371    0.15322    1.000
    N3059    N        0.60127    0.09184    0.20612    1.000
    N3060    N        0.53968    0.08757    0.16324    1.000
    Si3061   Si       0.56286    0.10665    0.19551    1.000
    N3062    N        0.53234    0.11352    0.22645    1.000
    Si3063   Si       0.60950    0.07334    0.24552    1.000
    N3064    N        0.67795    0.09928    0.18116    1.000
    Si3065   Si       0.71145    0.10515    0.20939    1.000
    Si3066   Si       0.67084    0.12050    0.14314    1.000
    N3067    N        0.64895    0.09221    0.24610    1.000
    N3068    N        0.71058    0.07071    0.23707    1.000
    Si3069   Si       0.64239    0.10646    0.20671    1.000
    Si3070   Si       0.58459    0.08728    0.31231    1.000
    Si3071   Si       0.53140    0.08749    0.26213    1.000
    N3072    N        0.51853    0.09803    0.30410    1.000
    N3073    N        0.57302    0.07951    0.27133    1.000
    Si3074   Si       0.48748    0.07424    0.32559    1.000
    Si3075   Si       0.72501    0.10696    0.33683    1.000
    N3076    N        0.69426    0.10080    0.30662    1.000
    Si3077   Si       0.65737    0.10714    0.32965    1.000
    N3078    N        0.62894    0.07966    0.31187    1.000
    Si3079   Si       0.68225    0.07637    0.27014    1.000
    N3080    N        0.66376    0.09136    0.37026    1.000
    N3081    N        0.72718    0.06900    0.35676    1.000
    Si3082   Si       0.57850    0.08606    0.49469    1.000
    N3083    N        0.60046    0.09395    0.39609    1.000
    Si3084   Si       0.56388    0.10566    0.41775    1.000
    N3085    N        0.56867    0.10963    0.46119    1.000
    N3086    N        0.54493    0.06892    0.40617    1.000
    Si3087   Si       0.64091    0.10760    0.40211    1.000
    N3088    N        0.65085    0.09460    0.44167    1.000
    Si3089   Si       0.64431    0.11770    0.47737    1.000
    N3090    N        0.55135    0.10062    0.52732    1.000
    N3091    N        0.51208    0.08469    0.58399    1.000
    Si3092   Si       0.54738    0.08738    0.60937    1.000
    Si3093   Si       0.51395    0.08182    0.53939    1.000
    N3094    N        0.57363    0.11536    0.58911    1.000
    Si3095   Si       0.61101    0.10033    0.60445    1.000
    N3096    N        0.62168    0.08951    0.50435    1.000
    Si3097   Si       0.70163    0.08723    0.50613    1.000
    N3098    N        0.62068    0.06883    0.57347    1.000
    N3099    N        0.68089    0.12499    0.50244    1.000
    N3100    N        0.73795    0.09242    0.52748    1.000
    Si3101   Si       0.50899    0.08637    0.67112    1.000
    N3102    N        0.53361    0.10984    0.64509    1.000
    Si3103   Si       0.52288    0.08189    0.73883    1.000
    N3104    N        0.53487    0.12281    0.74060    1.000
    Si3105   Si       0.67399    0.08161    0.74762    1.000
    N3106    N        0.62652    0.09872    0.64954    1.000
    N3107    N        0.73457    0.12008    0.69272    1.000
    N3108    N        0.67474    0.12046    0.72843    1.000
    N3109    N        0.57944    0.10602    0.78866    1.000
    N3110    N        0.51101    0.08854    0.81450    1.000
    Si3111   Si       0.55295    0.07561    0.80467    1.000
    Si3112   Si       0.62091    0.09723    0.79221    1.000
    N3113    N        0.69158    0.07496    0.78647    1.000
    N3114    N        0.62943    0.07091    0.75957    1.000
    Si3115   Si       0.73251    0.08486    0.80083    1.000
    N3116    N        0.63255    0.06972    0.82473    1.000
    N3117    N        0.73242    0.11929    0.82655    1.000
    N3118    N        0.56247    0.08487    0.96776    1.000
    Si3119   Si       0.59998    0.10526    0.97039    1.000
    N3120    N        0.52276    0.09596    0.91204    1.000
    Si3121   Si       0.52700    0.07107    0.94937    1.000
    N3122    N        0.49832    0.07424    0.98061    1.000
    N3123    N        0.62409    0.07906    0.94395    1.000
    Si3124   Si       0.69615    0.11763    0.92244    1.000
    Si3125   Si       0.73419    0.11886    0.98931    1.000
    Si3126   Si       0.63009    0.09065    0.90220    1.000
    N3127    N        0.67289    0.08902    0.89907    1.000
    N3128    N        0.72141    0.09731    0.95135    1.000
    N3129    N        0.54110    0.15108    0.07334    1.000
    Si3130   Si       0.50510    0.16296    0.09495    1.000
    Si3131   Si       0.56521    0.17827    0.04797    1.000
    N3132    N        0.60768    0.16837    0.04416    1.000
    Si3133   Si       0.69927    0.18051    0.09378    1.000
    N3134    N        0.71626    0.14696    0.07234    1.000
    N3135    N        0.51420    0.17507    0.19747    1.000
    Si3136   Si       0.51330    0.15090    0.23638    1.000
    N3137    N        0.51063    0.14229    0.13582    1.000
    Si3138   Si       0.53812    0.16345    0.16242    1.000
    N3139    N        0.57410    0.14444    0.17803    1.000
    Si3140   Si       0.61560    0.15444    0.16872    1.000
    N3141    N        0.64241    0.14868    0.20184    1.000
    Si3142   Si       0.67410    0.17020    0.22231    1.000
    N3143    N        0.68369    0.16122    0.13135    1.000
    N3144    N        0.70981    0.14604    0.22437    1.000
    N3145    N        0.62759    0.12518    0.13867    1.000
    N3146    N        0.53259    0.16152    0.27342    1.000
    Si3147   Si       0.60644    0.16197    0.32042    1.000
    Si3148   Si       0.53455    0.13753    0.31376    1.000
    N3149    N        0.51047    0.15846    0.34361    1.000
    N3150    N        0.57701    0.13002    0.31787    1.000
    N3151    N        0.64754    0.14789    0.31681    1.000
    N3152    N        0.71391    0.13745    0.36611    1.000
    Si3153   Si       0.67257    0.17909    0.29823    1.000
    N3154    N        0.51386    0.15542    0.47331    1.000
    N3155    N        0.55834    0.15066    0.41299    1.000
    Si3156   Si       0.55407    0.15093    0.45693    1.000
    N3157    N        0.56730    0.17958    0.48729    1.000
    Si3158   Si       0.68892    0.16243    0.38937    1.000
    N3159    N        0.63000    0.15891    0.47419    1.000
    N3160    N        0.71291    0.17142    0.42425    1.000
    N3161    N        0.64961    0.15109    0.40387    1.000
    Si3162   Si       0.63740    0.17923    0.43530    1.000
    N3163    N        0.60183    0.15570    0.54079    1.000
    N3164    N        0.53600    0.16752    0.54722    1.000
    Si3165   Si       0.56501    0.13547    0.55195    1.000
    Si3166   Si       0.60788    0.18007    0.50484    1.000
    N3167    N        0.55189    0.17779    0.61671    1.000
    Si3168   Si       0.52638    0.18134    0.50571    1.000
    N3169    N        0.70548    0.15717    0.60422    1.000
    Si3170   Si       0.68897    0.16328    0.51864    1.000
    Si3171   Si       0.62868    0.16671    0.57305    1.000
    N3172    N        0.63439    0.13709    0.60240    1.000
    N3173    N        0.73271    0.16174    0.53256    1.000
    Si3174   Si       0.73349    0.17342    0.57623    1.000
    N3175    N        0.66707    0.17928    0.55389    1.000
    N3176    N        0.49235    0.17660    0.74150    1.000
    Si3177   Si       0.58514    0.16775    0.69713    1.000
    Si3178   Si       0.52957    0.15346    0.64826    1.000
    N3179    N        0.60054    0.14566    0.73162    1.000
    N3180    N        0.54244    0.16361    0.68979    1.000
    Si3181   Si       0.51278    0.14798    0.71478    1.000
    N3182    N        0.60558    0.16555    0.66049    1.000
    N3183    N        0.48945    0.16292    0.63713    1.000
    Si3184   Si       0.64196    0.14645    0.74467    1.000
    Si3185   Si       0.69828    0.14289    0.70063    1.000
    Si3186   Si       0.63970    0.13914    0.64517    1.000
    N3187    N        0.72301    0.17538    0.72059    1.000
    N3188    N        0.65926    0.18331    0.73004    1.000
    N3189    N        0.67549    0.15536    0.66365    1.000
    Si3190   Si       0.69932    0.18160    0.63904    1.000
    Si3191   Si       0.57061    0.13780    0.76082    1.000
    N3192    N        0.49828    0.15886    0.81483    1.000
    N3193    N        0.55517    0.17841    0.76888    1.000
    Si3194   Si       0.51342    0.18032    0.77913    1.000
    N3195    N        0.60659    0.18409    0.83470    1.000
    N3196    N        0.73184    0.17974    0.83153    1.000
    Si3197   Si       0.64447    0.16992    0.81713    1.000
    N3198    N        0.66630    0.15197    0.84966    1.000
    N3199    N        0.63793    0.13760    0.78853    1.000
    Si3200   Si       0.70871    0.14574    0.84945    1.000
    N3201    N        0.51507    0.14318    0.96010    1.000
    Si3202   Si       0.55278    0.16543    0.96555    1.000
    Si3203   Si       0.59829    0.15930    0.91820    1.000
    N3204    N        0.59490    0.14708    0.96107    1.000
    Si3205   Si       0.52031    0.13851    0.91550    1.000
    N3206    N        0.55584    0.16452    0.91838    1.000
    N3207    N        0.49784    0.17420    0.89853    1.000
    N3208    N        0.69864    0.14252    0.99790    1.000
    Si3209   Si       0.71957    0.18388    0.90825    1.000
    N3210    N        0.66939    0.14891    0.93358    1.000
    Si3211   Si       0.65413    0.16293    0.89077    1.000
    N3212    N        0.72014    0.14384    0.89193    1.000
    N3213    N        0.62030    0.13090    0.89350    1.000
    Si3214   Si       0.68150    0.16992    0.97039    1.000
    N3215    N        0.55328    0.21786    0.06343    1.000
    N3216    N        0.49631    0.20427    0.11058    1.000
    Si3217   Si       0.51965    0.23796    0.04396    1.000
    N3218    N        0.61203    0.23389    0.10799    1.000
    Si3219   Si       0.58978    0.24168    0.07244    1.000
    N3220    N        0.55828    0.18716    0.00404    1.000
    N3221    N        0.61790    0.23403    0.04039    1.000
    Si3222   Si       0.64122    0.19754    0.03494    1.000
    N3223    N        0.66642    0.20072    0.07125    1.000
    Si3224   Si       0.65452    0.23699    0.09590    1.000
    N3225    N        0.73564    0.20897    0.09004    1.000
    Si3226   Si       0.52469    0.22868    0.13256    1.000
    N3227    N        0.55315    0.20043    0.14705    1.000
    Si3228   Si       0.59191    0.22244    0.14826    1.000
    N3229    N        0.50061    0.24160    0.16874    1.000
    Si3230   Si       0.66837    0.19802    0.15339    1.000
    N3231    N        0.68791    0.20134    0.19267    1.000
    N3232    N        0.68393    0.22744    0.12568    1.000
    N3233    N        0.62367    0.19568    0.15806    1.000
    Si3234   Si       0.72570    0.22125    0.19586    1.000
    Si3235   Si       0.72629    0.23441    0.12331    1.000
    N3236    N        0.53773    0.21096    0.32018    1.000
    Si3237   Si       0.55225    0.19879    0.28119    1.000
    Si3238   Si       0.49655    0.19748    0.32580    1.000
    N3239    N        0.59543    0.18980    0.28823    1.000
    Si3240   Si       0.50016    0.23362    0.24980    1.000
    Si3241   Si       0.54774    0.23792    0.34932    1.000
    N3242    N        0.60476    0.18384    0.36021    1.000
    N3243    N        0.54705    0.22710    0.24989    1.000
    N3244    N        0.65284    0.21822    0.31158    1.000
    Si3245   Si       0.62779    0.21520    0.27358    1.000
    Si3246   Si       0.64209    0.20829    0.35471    1.000
    Si3247   Si       0.71757    0.20957    0.33776    1.000
    N3248    N        0.68407    0.19837    0.36309    1.000
    N3249    N        0.71418    0.18835    0.30040    1.000
    N3250    N        0.65620    0.18709    0.25686    1.000
    Si3251   Si       0.50814    0.24220    0.47160    1.000
    N3252    N        0.55382    0.22188    0.38938    1.000
    N3253    N        0.49723    0.23182    0.43107    1.000
    Si3254   Si       0.59141    0.22894    0.46833    1.000
    N3255    N        0.60037    0.20139    0.43164    1.000
    N3256    N        0.55094    0.24256    0.46260    1.000
    Si3257   Si       0.57945    0.18563    0.39792    1.000
    N3258    N        0.66332    0.21424    0.43637    1.000
    N3259    N        0.72856    0.24376    0.44151    1.000
    N3260    N        0.69719    0.19740    0.49037    1.000
    Si3261   Si       0.70422    0.20688    0.44806    1.000
    Si3262   Si       0.52872    0.19198    0.58330    1.000
    N3263    N        0.53228    0.23941    0.59053    1.000
    N3264    N        0.50051    0.21432    0.50321    1.000
    N3265    N        0.61403    0.22182    0.50813    1.000
    N3266    N        0.61387    0.20167    0.59705    1.000
    Si3267   Si       0.67619    0.21198    0.58154    1.000
    N3268    N        0.71814    0.21318    0.57427    1.000
    N3269    N        0.59294    0.20891    0.71051    1.000
    Si3270   Si       0.58796    0.19343    0.63117    1.000
    N3271    N        0.58500    0.23675    0.64159    1.000
    Si3272   Si       0.59441    0.24354    0.68428    1.000
    N3273    N        0.67659    0.21728    0.62396    1.000
    Si3274   Si       0.73680    0.24183    0.67298    1.000
    N3275    N        0.73613    0.20138    0.65268    1.000
    Si3276   Si       0.63405    0.22022    0.72623    1.000
    N3277    N        0.67406    0.24002    0.74668    1.000
    Si3278   Si       0.69759    0.20173    0.74708    1.000
    N3279    N        0.49635    0.21966    0.79363    1.000
    Si3280   Si       0.57737    0.21176    0.75319    1.000
    Si3281   Si       0.59996    0.20969    0.86719    1.000
    N3282    N        0.61598    0.22254    0.76785    1.000
    Si3283   Si       0.71250    0.21493    0.81602    1.000
    N3284    N        0.67277    0.19901    0.80318    1.000
    N3285    N        0.72668    0.22127    0.77484    1.000
    Si3286   Si       0.65421    0.23500    0.78632    1.000
    N3287    N        0.56101    0.21952    0.88565    1.000
    Si3288   Si       0.53014    0.20217    0.91121    1.000
    N3289    N        0.52499    0.20902    0.95782    1.000
    Si3290   Si       0.55594    0.22635    0.98327    1.000
    N3291    N        0.50685    0.24076    0.90198    1.000
    N3292    N        0.71621    0.18846    0.95301    1.000
    N3293    N        0.71134    0.24223    0.99422    1.000
    N3294    N        0.62253    0.19370    0.90377    1.000
    N3295    N        0.65794    0.19886    0.99388    1.000
    N3296    N        0.68254    0.19851    0.89098    1.000
    Si3297   Si       0.67310    0.23674    0.97584    1.000
    N3298    N        0.65723    0.24545    0.93672    1.000
    Si3299   Si       0.65287    0.22836    0.89837    1.000
    N3300    N        0.58582    0.28436    0.07666    1.000
    N3301    N        0.50838    0.26862    0.07428    1.000
    N3302    N        0.54180    0.25736    0.01165    1.000
    Si3303   Si       0.54521    0.28930    0.08971    1.000
    Si3304   Si       0.60624    0.26442    0.01014    1.000
    Si3305   Si       0.54160    0.29939    0.00026    1.000
    N3306    N        0.58463    0.30284    0.00305    1.000
    N3307    N        0.65690    0.27993    0.09709    1.000
    N3308    N        0.70469    0.29576    0.03083    1.000
    N3309    N        0.72999    0.27757    0.11289    1.000
    Si3310   Si       0.73585    0.27204    0.01407    1.000
    Si3311   Si       0.61737    0.29993    0.10315    1.000
    Si3312   Si       0.69369    0.30089    0.11200    1.000
    Si3313   Si       0.67043    0.30582    0.00700    1.000
    Si3314   Si       0.56948    0.28357    0.16238    1.000
    Si3315   Si       0.57562    0.25297    0.22922    1.000
    N3316    N        0.57971    0.24914    0.18666    1.000
    N3317    N        0.55055    0.26373    0.12722    1.000
    N3318    N        0.49654    0.27584    0.24189    1.000
    N3319    N        0.60991    0.29497    0.14632    1.000
    N3320    N        0.56571    0.29392    0.24385    1.000
    Si3321   Si       0.69930    0.30080    0.19108    1.000
    N3322    N        0.72451    0.26576    0.18973    1.000
    N3323    N        0.65783    0.28667    0.20037    1.000
    Si3324   Si       0.64662    0.27742    0.24176    1.000
    N3325    N        0.57499    0.27205    0.34864    1.000
    N3326    N        0.51407    0.26655    0.35941    1.000
    Si3327   Si       0.61642    0.27926    0.35860    1.000
    N3328    N        0.67779    0.26686    0.26881    1.000
    Si3329   Si       0.67370    0.25728    0.31063    1.000
    N3330    N        0.71104    0.25181    0.33377    1.000
    N3331    N        0.64506    0.28670    0.32613    1.000
    Si3332   Si       0.71257    0.29622    0.26613    1.000
    Si3333   Si       0.73443    0.28353    0.35633    1.000
    N3334    N        0.61474    0.24662    0.24776    1.000
    Si3335   Si       0.54579    0.29449    0.37412    1.000
    N3336    N        0.50027    0.28389    0.47736    1.000
    N3337    N        0.54050    0.29137    0.41622    1.000
    Si3338   Si       0.53659    0.24729    0.42035    1.000
    Si3339   Si       0.64017    0.28940    0.47547    1.000
    N3340    N        0.66567    0.28477    0.41787    1.000
    N3341    N        0.68426    0.28710    0.48121    1.000
    N3342    N        0.61892    0.25928    0.45561    1.000
    Si3343   Si       0.64063    0.24729    0.41942    1.000
    Si3344   Si       0.70295    0.27878    0.44177    1.000
    N3345    N        0.63053    0.24347    0.37865    1.000
    Si3346   Si       0.55538    0.27045    0.56848    1.000
    N3347    N        0.59465    0.25634    0.56795    1.000
    N3348    N        0.55877    0.29484    0.60669    1.000
    N3349    N        0.53768    0.29288    0.53700    1.000
    Si3350   Si       0.49355    0.29948    0.53062    1.000
    N3351    N        0.71305    0.28442    0.54587    1.000
    N3352    N        0.70632    0.27721    0.61093    1.000
    Si3353   Si       0.68170    0.28549    0.57638    1.000
    N3354    N        0.62880    0.29114    0.51761    1.000
    Si3355   Si       0.62401    0.25267    0.53600    1.000
    N3356    N        0.65782    0.24900    0.56684    1.000
    Si3357   Si       0.61709    0.24520    0.60388    1.000
    Si3358   Si       0.54763    0.25820    0.62742    1.000
    N3359    N        0.57112    0.27538    0.70098    1.000
    Si3360   Si       0.52909    0.27381    0.70094    1.000
    N3361    N        0.52118    0.25600    0.66109    1.000
    N3362    N        0.49810    0.25328    0.72648    1.000
    Si3363   Si       0.60781    0.29662    0.71290    1.000
    Si3364   Si       0.67629    0.26088    0.63837    1.000
    N3365    N        0.69568    0.25364    0.67689    1.000
    N3366    N        0.63718    0.27721    0.62744    1.000
    Si3367   Si       0.67621    0.26608    0.71302    1.000
    N3368    N        0.63229    0.25971    0.70341    1.000
    N3369    N        0.68466    0.30594    0.72559    1.000
    Si3370   Si       0.56774    0.26240    0.80722    1.000
    N3371    N        0.59633    0.29246    0.81295    1.000
    N3372    N        0.53654    0.25940    0.83656    1.000
    Si3373   Si       0.49274    0.26031    0.82803    1.000
    Si3374   Si       0.51099    0.25117    0.76642    1.000
    N3375    N        0.55369    0.24593    0.76966    1.000
    N3376    N        0.49435    0.28387    0.78859    1.000
    Si3377   Si       0.69328    0.28579    0.83561    1.000
    Si3378   Si       0.63054    0.28037    0.83974    1.000
    N3379    N        0.66179    0.26870    0.81252    1.000
    N3380    N        0.71394    0.24793    0.84503    1.000
    N3381    N        0.62524    0.24696    0.86645    1.000
    Si3382   Si       0.53924    0.25668    0.87901    1.000
    N3383    N        0.55209    0.29917    0.89065    1.000
    N3384    N        0.59241    0.24544    0.97069    1.000
    N3385    N        0.73523    0.26916    0.91572    1.000
    Si3386   Si       0.62297    0.26826    0.95133    1.000
    N3387    N        0.64643    0.27250    0.99052    1.000
    N3388    N        0.54315    0.33158    0.09880    1.000
    N3389    N        0.52101    0.32263    0.03077    1.000
    Si3390   Si       0.54415    0.34923    0.05867    1.000
    Si3391   Si       0.60832    0.33921    0.01141    1.000
    N3392    N        0.62742    0.34276    0.09940    1.000
    N3393    N        0.64447    0.32822    0.03256    1.000
    N3394    N        0.69774    0.33244    0.08149    1.000
    Si3395   Si       0.65796    0.34737    0.07014    1.000
    Si3396   Si       0.72314    0.33221    0.04637    1.000
    N3397    N        0.71371    0.36200    0.01648    1.000
    Si3398   Si       0.54576    0.35196    0.20153    1.000
    N3399    N        0.54525    0.31982    0.17134    1.000
    Si3400   Si       0.52420    0.33387    0.13633    1.000
    N3401    N        0.51643    0.34305    0.23245    1.000
    N3402    N        0.58485    0.35143    0.22213    1.000
    N3403    N        0.68316    0.31946    0.15309    1.000
    N3404    N        0.64050    0.35428    0.18199    1.000
    Si3405   Si       0.64279    0.31184    0.16903    1.000
    Si3406   Si       0.73152    0.35530    0.21218    1.000
    N3407    N        0.70904    0.32086    0.23108    1.000
    Si3408   Si       0.53995    0.34044    0.31913    1.000
    Si3409   Si       0.59109    0.32799    0.25803    1.000
    N3410    N        0.57736    0.34140    0.29730    1.000
    N3411    N        0.54891    0.33477    0.35942    1.000
    N3412    N        0.51646    0.31222    0.29464    1.000
    Si3413   Si       0.52265    0.30562    0.25178    1.000
    N3414    N        0.69600    0.32386    0.29656    1.000
    Si3415   Si       0.65020    0.32185    0.30007    1.000
    Si3416   Si       0.71916    0.33803    0.32918    1.000
    N3417    N        0.63149    0.31467    0.26155    1.000
    N3418    N        0.70711    0.31681    0.36614    1.000
    N3419    N        0.49670    0.34322    0.44084    1.000
    N3420    N        0.55423    0.32781    0.48084    1.000
    Si3421   Si       0.58023    0.34760    0.38638    1.000
    Si3422   Si       0.58685    0.34885    0.46213    1.000
    Si3423   Si       0.52446    0.31021    0.45325    1.000
    N3424    N        0.60909    0.31517    0.38500    1.000
    Si3425   Si       0.63938    0.32227    0.41530    1.000
    N3426    N        0.72757    0.31275    0.43199    1.000
    N3427    N        0.66737    0.35560    0.40787    1.000
    N3428    N        0.62138    0.32476    0.45618    1.000
    Si3429   Si       0.70761    0.33735    0.40413    1.000
    N3430    N        0.58782    0.33371    0.55229    1.000
    Si3431   Si       0.57455    0.33532    0.59399    1.000
    Si3432   Si       0.55530    0.33053    0.52485    1.000
    N3433    N        0.60969    0.34482    0.61644    1.000
    Si3434   Si       0.50899    0.36045    0.57400    1.000
    Si3435   Si       0.62915    0.32683    0.54403    1.000
    N3436    N        0.66150    0.32173    0.57348    1.000
    N3437    N        0.71189    0.34631    0.50457    1.000
    Si3438   Si       0.71486    0.30413    0.50684    1.000
    Si3439   Si       0.67269    0.36580    0.56817    1.000
    Si3440   Si       0.52347    0.34464    0.73874    1.000
    N3441    N        0.51026    0.31194    0.71248    1.000
    N3442    N        0.61743    0.32816    0.68411    1.000
    N3443    N        0.73063    0.35075    0.69273    1.000
    Si3444   Si       0.69246    0.33596    0.69360    1.000
    Si3445   Si       0.63520    0.31810    0.64441    1.000
    N3446    N        0.67550    0.31850    0.65965    1.000
    N3447    N        0.66937    0.36519    0.72111    1.000
    Si3448   Si       0.59304    0.32692    0.78432    1.000
    N3449    N        0.54244    0.34638    0.83713    1.000
    N3450    N        0.55511    0.33904    0.76931    1.000
    N3451    N        0.49198    0.35336    0.77150    1.000
    Si3452   Si       0.52182    0.32092    0.86655    1.000
    N3453    N        0.61067    0.35878    0.80854    1.000
    Si3454   Si       0.52766    0.36125    0.79939    1.000
    Si3455   Si       0.58335    0.36278    0.84302    1.000
    N3456    N        0.68163    0.34419    0.78674    1.000
    Si3457   Si       0.72441    0.34617    0.79628    1.000
    N3458    N        0.61964    0.31658    0.75145    1.000
    N3459    N        0.72569    0.31097    0.82244    1.000
    Si3460   Si       0.66044    0.33353    0.75144    1.000
    N3461    N        0.66256    0.30718    0.85954    1.000
    N3462    N        0.60431    0.34269    0.87603    1.000
    Si3463   Si       0.58437    0.32268    0.90820    1.000
    Si3464   Si       0.52219    0.34399    0.93953    1.000
    N3465    N        0.50504    0.34453    0.89784    1.000
    N3466    N        0.56457    0.35175    0.93336    1.000
    N3467    N        0.51840    0.30791    0.96316    1.000
    N3468    N        0.61589    0.30528    0.93218    1.000
    N3469    N        0.67961    0.32666    0.97053    1.000
    Si3470   Si       0.64487    0.33528    0.94633    1.000
    Si3471   Si       0.71555    0.35160    0.97119    1.000
    N3472    N        0.61891    0.35852    0.97376    1.000
    Si3473   Si       0.64911    0.34567    0.87463    1.000
    N3474    N        0.65847    0.36154    0.91490    1.000
    Si3475   Si       0.58714    0.40621    0.02354    1.000
    N3476    N        0.60591    0.40725    0.08520    1.000
    N3477    N        0.51654    0.38006    0.06564    1.000
    Si3478   Si       0.50190    0.39756    0.10618    1.000
    N3479    N        0.57997    0.36384    0.03518    1.000
    N3480    N        0.67030    0.38878    0.06384    1.000
    Si3481   Si       0.70983    0.39691    0.04513    1.000
    Si3482   Si       0.73606    0.40791    0.11558    1.000
    Si3483   Si       0.61836    0.38197    0.11946    1.000
    Si3484   Si       0.64124    0.42169    0.06191    1.000
    Si3485   Si       0.49248    0.39218    0.17037    1.000
    N3486    N        0.49509    0.36675    0.13328    1.000
    N3487    N        0.58567    0.38223    0.14676    1.000
    N3488    N        0.53361    0.39137    0.18631    1.000
    Si3489   Si       0.56767    0.41468    0.17036    1.000
    N3490    N        0.59794    0.41615    0.20265    1.000
    Si3491   Si       0.68093    0.37010    0.16239    1.000
    N3492    N        0.63920    0.38556    0.24459    1.000
    N3493    N        0.69990    0.38131    0.20011    1.000
    N3494    N        0.72269    0.37804    0.14371    1.000
    N3495    N        0.65646    0.40062    0.13537    1.000
    Si3496   Si       0.67739    0.40359    0.22946    1.000
    Si3497   Si       0.61627    0.37710    0.20819    1.000
    N3498    N        0.52057    0.37837    0.31513    1.000
    Si3499   Si       0.59911    0.37254    0.32106    1.000
    N3500    N        0.58214    0.41094    0.31115    1.000
    N3501    N        0.60070    0.38071    0.36650    1.000
    Si3502   Si       0.53929    0.41651    0.31005    1.000
    Si3503   Si       0.65639    0.39320    0.28537    1.000
    N3504    N        0.71457    0.38109    0.33226    1.000
    N3505    N        0.69547    0.39842    0.26899    1.000
    Si3506   Si       0.72426    0.40839    0.29885    1.000
    N3507    N        0.63944    0.36159    0.30976    1.000
    Si3508   Si       0.72424    0.40591    0.36818    1.000
    Si3509   Si       0.52546    0.37588    0.43459    1.000
    N3510    N        0.52505    0.39999    0.46937    1.000
    N3511    N        0.51036    0.39880    0.39943    1.000
    Si3512   Si       0.60879    0.41917    0.38543    1.000
    N3513    N        0.56526    0.35914    0.42516    1.000
    N3514    N        0.59717    0.38560    0.48319    1.000
    N3515    N        0.73061    0.37367    0.39771    1.000
    N3516    N        0.69784    0.39890    0.45032    1.000
    Si3517   Si       0.67264    0.39841    0.41708    1.000
    N3518    N        0.63082    0.41119    0.42426    1.000
    Si3519   Si       0.51961    0.39628    0.51205    1.000
    N3520    N        0.52843    0.36261    0.53564    1.000
    N3521    N        0.54208    0.36329    0.60192    1.000
    N3522    N        0.71677    0.36808    0.56605    1.000
    Si3523   Si       0.72841    0.37927    0.52529    1.000
    Si3524   Si       0.62558    0.39781    0.51332    1.000
    N3525    N        0.66121    0.39869    0.59360    1.000
    N3526    N        0.64532    0.36518    0.53266    1.000
    N3527    N        0.70977    0.41908    0.52079    1.000
    N3528    N        0.48930    0.42176    0.73998    1.000
    N3529    N        0.50104    0.37730    0.65477    1.000
    N3530    N        0.53132    0.37720    0.71463    1.000
    N3531    N        0.57344    0.38695    0.66015    1.000
    N3532    N        0.60378    0.39242    0.72327    1.000
    Si3533   Si       0.53792    0.39006    0.63537    1.000
    Si3534   Si       0.56524    0.39914    0.70243    1.000
    Si3535   Si       0.60845    0.38692    0.63313    1.000
    Si3536   Si       0.49454    0.39552    0.69452    1.000
    N3537    N        0.64374    0.38629    0.65917    1.000
    N3538    N        0.71592    0.41326    0.70475    1.000
    Si3539   Si       0.68491    0.40279    0.74247    1.000
    Si3540   Si       0.67693    0.40192    0.63571    1.000
    Si3541   Si       0.63113    0.36838    0.69695    1.000
    N3542    N        0.71522    0.38109    0.63242    1.000
    Si3543   Si       0.73303    0.38898    0.67383    1.000
    N3544    N        0.53304    0.40444    0.80075    1.000
    N3545    N        0.57725    0.40228    0.85987    1.000
    N3546    N        0.65430    0.40256    0.77615    1.000
    N3547    N        0.66354    0.37659    0.84695    1.000
    Si3548   Si       0.65196    0.37196    0.80555    1.000
    Si3549   Si       0.69035    0.40650    0.86452    1.000
    N3550    N        0.73632    0.38068    0.81938    1.000
    Si3551   Si       0.58981    0.38041    0.95235    1.000
    N3552    N        0.57196    0.40835    0.98104    1.000
    N3553    N        0.49850    0.37378    0.95865    1.000
    N3554    N        0.60923    0.40587    0.92375    1.000
    Si3555   Si       0.65327    0.40396    0.92733    1.000
    N3556    N        0.72476    0.38777    0.88407    1.000
    Si3557   Si       0.73756    0.38898    0.92532    1.000
    N3558    N        0.70488    0.39155    0.95544    1.000
    Si3559   Si       0.52831    0.45397    0.02221    1.000
    Si3560   Si       0.57122    0.43441    0.08577    1.000
    N3561    N        0.55989    0.43351    0.04259    1.000
    N3562    N        0.53571    0.42596    0.11066    1.000
    N3563    N        0.58783    0.47427    0.09251    1.000
    N3564    N        0.62424    0.42643    0.02287    1.000
    N3565    N        0.65333    0.45603    0.08513    1.000
    N3566    N        0.70391    0.43194    0.02171    1.000
    Si3567   Si       0.70003    0.47562    0.02539    1.000
    N3568    N        0.55494    0.45453    0.16023    1.000
    Si3569   Si       0.51738    0.45938    0.13781    1.000
    Si3570   Si       0.61708    0.45038    0.22308    1.000
    N3571    N        0.66035    0.44532    0.22263    1.000
    N3572    N        0.64857    0.47629    0.14216    1.000
    N3573    N        0.71018    0.44202    0.12445    1.000
    Si3574   Si       0.66698    0.44089    0.12487    1.000
    N3575    N        0.52265    0.44417    0.34552    1.000
    N3576    N        0.59579    0.45575    0.26084    1.000
    Si3577   Si       0.60531    0.44536    0.30323    1.000
    Si3578   Si       0.55372    0.46691    0.25870    1.000
    N3579    N        0.52834    0.43219    0.27182    1.000
    Si3580   Si       0.59680    0.47797    0.36855    1.000
    N3581    N        0.58430    0.47457    0.32765    1.000
    N3582    N        0.71711    0.45157    0.30662    1.000
    N3583    N        0.64845    0.43372    0.30140    1.000
    Si3584   Si       0.67632    0.46738    0.30462    1.000
    N3585    N        0.50221    0.46269    0.48107    1.000
    N3586    N        0.57716    0.44733    0.45504    1.000
    Si3587   Si       0.52964    0.43563    0.38779    1.000
    N3588    N        0.57458    0.44621    0.39244    1.000
    Si3589   Si       0.53962    0.44203    0.47669    1.000
    N3590    N        0.52151    0.46774    0.41783    1.000
    Si3591   Si       0.56518    0.47771    0.42358    1.000
    N3592    N        0.63154    0.45299    0.37069    1.000
    Si3593   Si       0.67109    0.46901    0.37821    1.000
    Si3594   Si       0.61822    0.43336    0.45828    1.000
    Si3595   Si       0.69092    0.42502    0.48352    1.000
    N3596    N        0.70735    0.46096    0.46386    1.000
    N3597    N        0.69181    0.43023    0.38764    1.000
    N3598    N        0.64848    0.42275    0.48800    1.000
    Si3599   Si       0.57697    0.45127    0.53883    1.000
    N3600    N        0.55922    0.46934    0.57563    1.000
    N3601    N        0.54498    0.43196    0.51972    1.000
    Si3602   Si       0.57240    0.45212    0.61396    1.000
    N3603    N        0.61055    0.42469    0.54286    1.000
    N3604    N        0.60324    0.42347    0.60962    1.000
    N3605    N        0.73160    0.45136    0.58638    1.000
    N3606    N        0.66700    0.45866    0.56645    1.000
    Si3607   Si       0.70702    0.45275    0.54917    1.000
    Si3608   Si       0.63636    0.43003    0.57919    1.000
    N3609    N        0.53790    0.43262    0.62815    1.000
    Si3610   Si       0.50861    0.46018    0.64533    1.000
    N3611    N        0.55075    0.44004    0.70009    1.000
    Si3612   Si       0.50943    0.45416    0.71409    1.000
    Si3613   Si       0.56576    0.47722    0.68154    1.000
    N3614    N        0.68873    0.44082    0.64991    1.000
    Si3615   Si       0.73638    0.44196    0.73086    1.000
    Si3616   Si       0.71283    0.46710    0.62291    1.000
    Si3617   Si       0.68267    0.45403    0.69247    1.000
    N3618    N        0.71685    0.47637    0.70973    1.000
    N3619    N        0.65867    0.43302    0.72166    1.000
    N3620    N        0.57596    0.45518    0.81422    1.000
    N3621    N        0.51961    0.43812    0.86034    1.000
    Si3622   Si       0.51045    0.43236    0.77711    1.000
    N3623    N        0.53219    0.46444    0.75624    1.000
    Si3624   Si       0.57090    0.47201    0.77473    1.000
    N3625    N        0.60645    0.45957    0.75402    1.000
    Si3626   Si       0.55173    0.42643    0.83341    1.000
    N3627    N        0.70035    0.43750    0.83420    1.000
    Si3628   Si       0.73133    0.42360    0.80794    1.000
    N3629    N        0.71894    0.42371    0.76629    1.000
    Si3630   Si       0.62716    0.42160    0.74745    1.000
    Si3631   Si       0.58755    0.42927    0.89304    1.000
    Si3632   Si       0.56157    0.44616    0.96177    1.000
    N3633    N        0.55499    0.44393    0.91932    1.000
    N3634    N        0.52704    0.46333    0.97903    1.000
    Si3635   Si       0.51889    0.45729    0.90063    1.000
    N3636    N        0.59826    0.46802    0.97259    1.000
    N3637    N        0.61193    0.46110    0.87761    1.000
    Si3638   Si       0.63356    0.45345    0.99047    1.000
    N3639    N        0.71820    0.45785    0.96003    1.000
    N3640    N        0.65352    0.42637    0.96379    1.000
    Si3641   Si       0.69621    0.42624    0.97898    1.000
    Si3642   Si       0.65435    0.46757    0.89117    1.000
    N3643    N        0.66742    0.42716    0.89484    1.000
    N3644    N        0.50753    0.49072    0.10672    1.000
    Si3645   Si       0.57115    0.50338    0.06127    1.000
    N3646    N        0.53302    0.49310    0.04178    1.000
    N3647    N        0.60455    0.51020    0.03622    1.000
    Si3648   Si       0.50035    0.50712    0.06641    1.000
    N3649    N        0.55616    0.53706    0.08517    1.000
    N3650    N        0.68561    0.50806    0.05098    1.000
    Si3651   Si       0.71402    0.52070    0.07969    1.000
    N3652    N        0.64089    0.52558    0.09411    1.000
    Si3653   Si       0.64451    0.52418    0.04946    1.000
    Si3654   Si       0.62837    0.48551    0.10569    1.000
    N3655    N        0.73942    0.48696    0.08537    1.000
    N3656    N        0.56390    0.52502    0.16036    1.000
    Si3657   Si       0.56766    0.48927    0.18430    1.000
    N3658    N        0.50005    0.49286    0.16888    1.000
    Si3659   Si       0.50034    0.48366    0.21117    1.000
    N3660    N        0.60821    0.48504    0.19826    1.000
    N3661    N        0.54329    0.48062    0.22017    1.000
    N3662    N        0.70318    0.53656    0.11997    1.000
    Si3663   Si       0.73852    0.53611    0.14585    1.000
    Si3664   Si       0.64061    0.50252    0.17706    1.000
    N3665    N        0.72800    0.49764    0.22379    1.000
    Si3666   Si       0.70730    0.53668    0.20820    1.000
    N3667    N        0.67478    0.51009    0.20052    1.000
    Si3668   Si       0.68768    0.48163    0.23098    1.000
    N3669    N        0.53449    0.51580    0.35151    1.000
    N3670    N        0.53453    0.49380    0.28722    1.000
    Si3671   Si       0.54118    0.48114    0.32724    1.000
    Si3672   Si       0.51840    0.52833    0.26670    1.000
    N3673    N        0.67665    0.49499    0.27201    1.000
    N3674    N        0.67853    0.49153    0.33971    1.000
    Si3675   Si       0.67704    0.53414    0.33157    1.000
    Si3676   Si       0.66375    0.53570    0.26156    1.000
    N3677    N        0.71807    0.53933    0.31783    1.000
    Si3678   Si       0.73331    0.49386    0.31297    1.000
    Si3679   Si       0.59915    0.50190    0.48138    1.000
    N3680    N        0.49672    0.53097    0.45438    1.000
    N3681    N        0.56201    0.50509    0.45836    1.000
    N3682    N        0.58354    0.50764    0.39483    1.000
    Si3683   Si       0.49153    0.48674    0.44865    1.000
    N3684    N        0.68210    0.51872    0.48431    1.000
    Si3685   Si       0.67441    0.48828    0.45459    1.000
    N3686    N        0.67380    0.49777    0.41168    1.000
    N3687    N        0.63108    0.47863    0.46083    1.000
    N3688    N        0.53305    0.52268    0.56154    1.000
    Si3689   Si       0.57906    0.51352    0.55810    1.000
    N3690    N        0.58882    0.48943    0.52319    1.000
    N3691    N        0.50110    0.48811    0.61343    1.000
    Si3692   Si       0.51838    0.48462    0.57418    1.000
    Si3693   Si       0.48899    0.53589    0.55418    1.000
    N3694    N        0.61694    0.50467    0.58525    1.000
    Si3695   Si       0.70466    0.52522    0.52085    1.000
    Si3696   Si       0.65981    0.50250    0.58001    1.000
    N3697    N        0.72456    0.48733    0.52918    1.000
    N3698    N        0.67598    0.53424    0.55523    1.000
    N3699    N        0.68501    0.50073    0.61670    1.000
    Si3700   Si       0.60425    0.51913    0.62406    1.000
    N3701    N        0.52332    0.48873    0.67505    1.000
    N3702    N        0.58777    0.50272    0.70833    1.000
    Si3703   Si       0.49907    0.52420    0.68963    1.000
    N3704    N        0.58318    0.48453    0.64177    1.000
    Si3705   Si       0.73452    0.50453    0.68351    1.000
    N3706    N        0.65350    0.48998    0.69037    1.000
    Si3707   Si       0.66945    0.51589    0.65655    1.000
    Si3708   Si       0.62664    0.49138    0.72556    1.000
    N3709    N        0.70381    0.53536    0.67614    1.000
    N3710    N        0.63605    0.53874    0.64377    1.000
    N3711    N        0.55613    0.51288    0.78079    1.000
    N3712    N        0.57254    0.51336    0.84894    1.000
    Si3713   Si       0.51784    0.50714    0.75481    1.000
    Si3714   Si       0.59978    0.47993    0.84024    1.000
    Si3715   Si       0.56359    0.53866    0.81387    1.000
    Si3716   Si       0.63774    0.52330    0.79934    1.000
    N3717    N        0.71350    0.49710    0.80610    1.000
    N3718    N        0.64163    0.52346    0.75431    1.000
    N3719    N        0.64051    0.48817    0.82303    1.000
    Si3720   Si       0.68504    0.47719    0.83071    1.000
    N3721    N        0.51669    0.50016    0.89480    1.000
    N3722    N        0.58514    0.51917    0.91598    1.000
    Si3723   Si       0.55407    0.52265    0.88635    1.000
    Si3724   Si       0.61035    0.50089    0.94611    1.000
    Si3725   Si       0.49407    0.53708    0.90974    1.000
    N3726    N        0.68308    0.49159    0.87265    1.000
    Si3727   Si       0.69789    0.52638    0.89483    1.000
    N3728    N        0.66954    0.47973    0.99443    1.000
    N3729    N        0.64776    0.48627    0.93098    1.000
    Si3730   Si       0.68444    0.48691    0.95533    1.000
    N3731    N        0.70263    0.52311    0.93875    1.000
    Si3732   Si       0.54049    0.56553    0.05708    1.000
    N3733    N        0.56434    0.56182    0.02109    1.000
    N3734    N        0.50076    0.55129    0.05337    1.000
    Si3735   Si       0.60213    0.54498    0.00940    1.000
    N3736    N        0.50600    0.59226    0.99861    1.000
    Si3737   Si       0.54984    0.59609    0.99809    1.000
    Si3738   Si       0.73154    0.58269    0.03754    1.000
    N3739    N        0.63832    0.56214    0.02620    1.000
    N3740    N        0.70354    0.57244    0.00564    1.000
    Si3741   Si       0.66205    0.58801    0.00174    1.000
    N3742    N        0.65660    0.59004    0.11940    1.000
    N3743    N        0.57302    0.58209    0.13266    1.000
    Si3744   Si       0.54824    0.54691    0.12681    1.000
    Si3745   Si       0.58919    0.56294    0.23964    1.000
    Si3746   Si       0.59456    0.55875    0.16367    1.000
    N3747    N        0.50731    0.55763    0.13268    1.000
    N3748    N        0.58211    0.57921    0.20080    1.000
    N3749    N        0.62565    0.54025    0.24167    1.000
    Si3750   Si       0.65993    0.54883    0.12482    1.000
    N3751    N        0.69513    0.55950    0.24248    1.000
    N3752    N        0.63218    0.54102    0.15728    1.000
    N3753    N        0.73616    0.55576    0.18386    1.000
    N3754    N        0.58326    0.56364    0.35150    1.000
    Si3755   Si       0.50590    0.54618    0.33859    1.000
    N3756    N        0.52350    0.58057    0.35811    1.000
    N3757    N        0.50046    0.55499    0.29655    1.000
    N3758    N        0.59751    0.59509    0.26932    1.000
    N3759    N        0.55137    0.54909    0.25056    1.000
    Si3760   Si       0.62476    0.57579    0.35869    1.000
    N3761    N        0.65440    0.55524    0.29976    1.000
    N3762    N        0.65633    0.54747    0.36686    1.000
    Si3763   Si       0.63566    0.59447    0.28967    1.000
    Si3764   Si       0.53926    0.54259    0.45605    1.000
    N3765    N        0.54296    0.56119    0.41560    1.000
    Si3766   Si       0.51537    0.58881    0.40093    1.000
    N3767    N        0.54998    0.56744    0.48912    1.000
    Si3768   Si       0.55798    0.54052    0.37828    1.000
    N3769    N        0.49682    0.59911    0.47211    1.000
    N3770    N        0.61724    0.54100    0.48492    1.000
    N3771    N        0.66393    0.56373    0.43825    1.000
    Si3772   Si       0.65696    0.55268    0.47804    1.000
    Si3773   Si       0.72892    0.59258    0.38883    1.000
    N3774    N        0.72107    0.55072    0.39709    1.000
    Si3775   Si       0.67762    0.53974    0.40334    1.000
    Si3776   Si       0.59644    0.57834    0.57938    1.000
    N3777    N        0.59151    0.55330    0.54294    1.000
    N3778    N        0.57566    0.55178    0.60856    1.000
    N3779    N        0.49740    0.57662    0.54185    1.000
    Si3780   Si       0.59081    0.56987    0.50505    1.000
    Si3781   Si       0.52149    0.59420    0.50715    1.000
    Si3782   Si       0.66909    0.57893    0.54830    1.000
    N3783    N        0.66009    0.58719    0.50554    1.000
    N3784    N        0.64036    0.59016    0.58155    1.000
    N3785    N        0.73623    0.55097    0.51548    1.000
    N3786    N        0.51646    0.54725    0.65184    1.000
    N3787    N        0.59163    0.57139    0.73938    1.000
    N3788    N        0.58131    0.55806    0.67605    1.000
    Si3789   Si       0.50980    0.57596    0.73013    1.000
    Si3790   Si       0.55402    0.56688    0.64220    1.000
    Si3791   Si       0.57415    0.54397    0.71444    1.000
    N3792    N        0.53191    0.53696    0.72448    1.000
    Si3793   Si       0.72135    0.57430    0.65962    1.000
    N3794    N        0.71515    0.59339    0.69740    1.000
    Si3795   Si       0.62287    0.57079    0.67107    1.000
    N3796    N        0.65007    0.56665    0.70575    1.000
    Si3797   Si       0.69217    0.55919    0.71313    1.000
    N3798    N        0.69807    0.59213    0.62706    1.000
    Si3799   Si       0.63311    0.56528    0.74460    1.000
    N3800    N        0.52645    0.55887    0.82656    1.000
    N3801    N        0.60442    0.55099    0.80704    1.000
    Si3802   Si       0.53020    0.58722    0.85854    1.000
    N3803    N        0.50179    0.58624    0.77111    1.000
    Si3804   Si       0.48910    0.55750    0.80230    1.000
    Si3805   Si       0.61610    0.59288    0.80462    1.000
    Si3806   Si       0.66895    0.57663    0.84836    1.000
    N3807    N        0.67301    0.54773    0.81628    1.000
    N3808    N        0.71288    0.54684    0.75091    1.000
    Si3809   Si       0.71108    0.54101    0.79358    1.000
    N3810    N        0.60808    0.53648    0.96948    1.000
    N3811    N        0.53615    0.56243    0.89619    1.000
    Si3812   Si       0.58843    0.55712    0.93712    1.000
    N3813    N        0.55793    0.58029    0.95831    1.000
    N3814    N        0.60961    0.58180    0.90823    1.000
    Si3815   Si       0.53229    0.59493    0.92789    1.000
    N3816    N        0.67061    0.55857    0.88795    1.000
    N3817    N        0.66592    0.58001    0.95688    1.000
    N3818    N        0.73728    0.54360    0.88462    1.000
    Si3819   Si       0.65118    0.58600    0.91859    1.000
    Si3820   Si       0.70174    0.55765    0.96409    1.000
    Si3821   Si       0.51772    0.63630    0.07885    1.000
    N3822    N        0.57819    0.62786    0.00919    1.000
    N3823    N        0.59435    0.64368    0.09074    1.000
    N3824    N        0.54367    0.60669    0.06517    1.000
    Si3825   Si       0.57627    0.64628    0.04993    1.000
    N3826    N        0.52479    0.63619    0.12151    1.000
    Si3827   Si       0.61504    0.65160    0.99766    1.000
    N3828    N        0.71287    0.61311    0.06144    1.000
    N3829    N        0.65397    0.63093    0.00257    1.000
    N3830    N        0.66912    0.65501    0.09209    1.000
    Si3831   Si       0.70750    0.65459    0.07104    1.000
    Si3832   Si       0.57137    0.62491    0.12470    1.000
    Si3833   Si       0.50235    0.60056    0.13906    1.000
    Si3834   Si       0.55384    0.61368    0.19742    1.000
    N3835    N        0.54807    0.63579    0.23576    1.000
    N3836    N        0.57869    0.63625    0.16807    1.000
    N3837    N        0.51298    0.61392    0.18044    1.000
    N3838    N        0.73009    0.61484    0.22003    1.000
    Si3839   Si       0.73423    0.65078    0.13839    1.000
    N3840    N        0.69694    0.64069    0.15343    1.000
    Si3841   Si       0.66517    0.62999    0.12702    1.000
    N3842    N        0.63410    0.65763    0.14371    1.000
    Si3843   Si       0.57348    0.63035    0.26908    1.000
    N3844    N        0.55067    0.62876    0.30958    1.000
    Si3845   Si       0.56006    0.60024    0.34072    1.000
    N3846    N        0.57426    0.62695    0.37310    1.000
    Si3847   Si       0.61654    0.63861    0.36416    1.000
    N3848    N        0.66351    0.61711    0.26261    1.000
    N3849    N        0.62648    0.60893    0.32891    1.000
    Si3850   Si       0.72874    0.63261    0.32234    1.000
    N3851    N        0.73265    0.60781    0.28602    1.000
    Si3852   Si       0.64436    0.65721    0.25157    1.000
    Si3853   Si       0.70302    0.60102    0.25310    1.000
    N3854    N        0.69671    0.65512    0.33539    1.000
    N3855    N        0.52258    0.62933    0.41869    1.000
    Si3856   Si       0.49780    0.63879    0.45355    1.000
    Si3857   Si       0.55101    0.65402    0.39687    1.000
    N3858    N        0.69368    0.61724    0.40081    1.000
    Si3859   Si       0.68870    0.65447    0.37884    1.000
    Si3860   Si       0.63679    0.62337    0.49386    1.000
    N3861    N        0.63722    0.63401    0.44952    1.000
    Si3862   Si       0.65801    0.60495    0.42212    1.000
    N3863    N        0.63054    0.60380    0.39042    1.000
    Si3864   Si       0.57487    0.63468    0.53800    1.000
    N3865    N        0.53530    0.63196    0.52318    1.000
    Si3866   Si       0.53740    0.62410    0.60076    1.000
    N3867    N        0.56935    0.61327    0.57528    1.000
    N3868    N        0.59707    0.61221    0.50854    1.000
    N3869    N        0.49403    0.61956    0.59824    1.000
    Si3870   Si       0.72921    0.62788    0.53044    1.000
    N3871    N        0.70619    0.60256    0.55737    1.000
    Si3872   Si       0.65804    0.61040    0.61755    1.000
    Si3873   Si       0.72743    0.59992    0.59375    1.000
    N3874    N        0.55277    0.60907    0.63959    1.000
    N3875    N        0.60439    0.64450    0.73403    1.000
    Si3876   Si       0.53882    0.62502    0.67878    1.000
    N3877    N        0.49522    0.63427    0.66947    1.000
    Si3878   Si       0.59159    0.63500    0.64386    1.000
    N3879    N        0.53947    0.60491    0.71586    1.000
    Si3880   Si       0.57507    0.61293    0.74313    1.000
    N3881    N        0.57143    0.65485    0.67537    1.000
    N3882    N        0.67105    0.65294    0.62038    1.000
    N3883    N        0.62568    0.60667    0.64760    1.000
    N3884    N        0.67497    0.64461    0.72956    1.000
    Si3885   Si       0.71547    0.63475    0.71275    1.000
    N3886    N        0.57759    0.61300    0.78698    1.000
    Si3887   Si       0.56264    0.63744    0.81791    1.000
    N3888    N        0.56620    0.61096    0.85337    1.000
    N3889    N        0.52278    0.64668    0.80962    1.000
    Si3890   Si       0.49796    0.62840    0.78169    1.000
    N3891    N        0.50029    0.61627    0.86538    1.000
    N3892    N        0.49260    0.65222    0.74485    1.000
    Si3893   Si       0.64175    0.64161    0.75689    1.000
    N3894    N        0.70205    0.60772    0.85235    1.000
    Si3895   Si       0.73028    0.61068    0.81967    1.000
    N3896    N        0.71703    0.64921    0.80562    1.000
    N3897    N        0.63282    0.60110    0.84384    1.000
    N3898    N        0.64404    0.59855    0.77175    1.000
    N3899    N        0.60273    0.65314    0.88920    1.000
    N3900    N        0.53825    0.63754    0.93102    1.000
    Si3901   Si       0.60356    0.61255    0.87573    1.000
    N3902    N        0.72050    0.63750    0.97298    1.000
    N3903    N        0.72936    0.64901    0.89897    1.000
    N3904    N        0.66127    0.62708    0.90782    1.000
    Si3905   Si       0.69113    0.63721    0.88076    1.000
    Si3906   Si       0.68856    0.65500    0.99636    1.000
    N3907    N        0.53795    0.66893    0.05640    1.000
    N3908    N        0.60728    0.67789    0.03367    1.000
    N3909    N        0.50164    0.70973    0.12198    1.000
    Si3910   Si       0.53188    0.71067    0.04545    1.000
    N3911    N        0.71136    0.67094    0.03231    1.000
    N3912    N        0.73159    0.67536    0.10115    1.000
    Si3913   Si       0.62808    0.66966    0.10241    1.000
    N3914    N        0.62345    0.71205    0.09686    1.000
    Si3915   Si       0.70888    0.71172    0.01667    1.000
    Si3916   Si       0.52687    0.67177    0.22439    1.000
    N3917    N        0.59734    0.70321    0.18822    1.000
    Si3918   Si       0.51078    0.67365    0.14696    1.000
    Si3919   Si       0.60927    0.66267    0.18018    1.000
    N3920    N        0.53193    0.68483    0.18404    1.000
    N3921    N        0.54174    0.71117    0.23757    1.000
    N3922    N        0.66931    0.71103    0.16057    1.000
    Si3923   Si       0.67290    0.66998    0.17817    1.000
    N3924    N        0.64229    0.65713    0.20819    1.000
    N3925    N        0.70241    0.68746    0.20717    1.000
    Si3926   Si       0.73448    0.65785    0.20976    1.000
    Si3927   Si       0.59662    0.68900    0.29782    1.000
    N3928    N        0.55436    0.70014    0.30233    1.000
    Si3929   Si       0.53173    0.66709    0.32162    1.000
    N3930    N        0.53246    0.67745    0.36564    1.000
    N3931    N        0.60572    0.66019    0.26817    1.000
    N3932    N        0.49145    0.67164    0.30699    1.000
    N3933    N        0.60908    0.67503    0.33735    1.000
    N3934    N        0.67583    0.68207    0.26778    1.000
    Si3935   Si       0.68476    0.68789    0.31029    1.000
    Si3936   Si       0.63558    0.70079    0.36007    1.000
    Si3937   Si       0.71140    0.70060    0.25095    1.000
    N3938    N        0.71777    0.71416    0.29827    1.000
    N3939    N        0.50653    0.67275    0.47665    1.000
    N3940    N        0.58430    0.67997    0.41687    1.000
    N3941    N        0.49317    0.70518    0.41450    1.000
    Si3942   Si       0.50044    0.71165    0.45771    1.000
    Si3943   Si       0.62566    0.67035    0.42852    1.000
    Si3944   Si       0.69570    0.69903    0.43245    1.000
    N3945    N        0.71435    0.68565    0.39410    1.000
    N3946    N        0.65301    0.69992    0.44242    1.000
    N3947    N        0.71007    0.66753    0.46042    1.000
    N3948    N        0.64691    0.66663    0.38610    1.000
    Si3949   Si       0.57989    0.68339    0.59038    1.000
    Si3950   Si       0.50744    0.69222    0.59087    1.000
    N3951    N        0.59101    0.67409    0.54875    1.000
    N3952    N        0.54155    0.66706    0.60275    1.000
    N3953    N        0.49518    0.69109    0.54836    1.000
    N3954    N        0.60694    0.66390    0.61618    1.000
    Si3955   Si       0.50339    0.66130    0.51852    1.000
    Si3956   Si       0.62531    0.69086    0.52812    1.000
    N3957    N        0.64923    0.66056    0.50785    1.000
    N3958    N        0.71112    0.66810    0.53141    1.000
    Si3959   Si       0.68906    0.67845    0.49725    1.000
    Si3960   Si       0.59892    0.67336    0.70366    1.000
    N3961    N        0.72408    0.70058    0.63352    1.000
    N3962    N        0.65346    0.70608    0.73891    1.000
    Si3963   Si       0.72142    0.70834    0.67712    1.000
    Si3964   Si       0.71120    0.65874    0.63437    1.000
    Si3965   Si       0.67048    0.68173    0.70461    1.000
    N3966    N        0.63483    0.67379    0.67723    1.000
    N3967    N        0.71870    0.70129    0.72849    1.000
    N3968    N        0.70915    0.66196    0.67839    1.000
    Si3969   Si       0.64082    0.68062    0.63538    1.000
    N3970    N        0.58324    0.67261    0.82670    1.000
    Si3971   Si       0.50222    0.65791    0.84754    1.000
    Si3972   Si       0.61583    0.69443    0.80958    1.000
    Si3973   Si       0.68394    0.67642    0.81269    1.000
    N3974    N        0.68939    0.67849    0.85576    1.000
    N3975    N        0.64548    0.66441    0.79389    1.000
    N3976    N        0.69474    0.71230    0.79467    1.000
    N3977    N        0.63575    0.71403    0.84296    1.000
    Si3978   Si       0.57448    0.68069    0.87064    1.000
    N3979    N        0.52996    0.67533    0.87587    1.000
    Si3980   Si       0.51608    0.67142    0.91647    1.000
    N3981    N        0.52390    0.70939    0.93626    1.000
    Si3982   Si       0.50551    0.71247    0.97657    1.000
    Si3983   Si       0.63344    0.65984    0.91829    1.000
    N3984    N        0.62147    0.66834    0.95910    1.000
    Si3985   Si       0.64821    0.70415    0.95580    1.000
    Si3986   Si       0.73091    0.68442    0.87340    1.000
    N3987    N        0.67964    0.69775    0.98553    1.000
    N3988    N        0.65296    0.69937    0.91325    1.000
    N3989    N        0.56688    0.73230    0.06280    1.000
    N3990    N        0.53269    0.73144    0.00545    1.000
    Si3991   Si       0.60811    0.71805    0.05704    1.000
    N3992    N        0.52054    0.77363    0.10066    1.000
    Si3993   Si       0.55706    0.77162    0.07494    1.000
    Si3994   Si       0.54755    0.77285    0.00178    1.000
    N3995    N        0.58963    0.77533    0.00083    1.000
    Si3996   Si       0.67284    0.75574    0.06600    1.000
    N3997    N        0.64124    0.74227    0.03988    1.000
    N3998    N        0.71025    0.74023    0.05128    1.000
    N3999    N        0.68083    0.74834    0.10920    1.000
    Si4000   Si       0.63343    0.76331    0.00412    1.000
    N4001    N        0.53805    0.75315    0.16859    1.000
    N4002    N        0.58178    0.76338    0.21197    1.000
    Si4003   Si       0.51102    0.74930    0.13631    1.000
    Si4004   Si       0.55581    0.72283    0.19577    1.000
    Si4005   Si       0.71879    0.76090    0.12908    1.000
    Si4006   Si       0.61726    0.74419    0.19207    1.000
    N4007    N        0.62135    0.76003    0.15149    1.000
    Si4008   Si       0.69372    0.72937    0.19336    1.000
    Si4009   Si       0.64736    0.73072    0.12962    1.000
    N4010    N        0.71877    0.74145    0.23640    1.000
    N4011    N        0.70686    0.76566    0.17019    1.000
    N4012    N        0.65504    0.74687    0.21360    1.000
    Si4013   Si       0.68247    0.76646    0.24240    1.000
    Si4014   Si       0.53714    0.73004    0.27446    1.000
    N4015    N        0.55838    0.76728    0.28236    1.000
    N4016    N        0.49399    0.73269    0.28101    1.000
    N4017    N        0.48827    0.73532    0.35122    1.000
    N4018    N        0.61587    0.72626    0.28629    1.000
    Si4019   Si       0.69667    0.74694    0.31906    1.000
    N4020    N        0.67537    0.76287    0.28442    1.000
    Si4021   Si       0.63218    0.76462    0.29278    1.000
    N4022    N        0.66826    0.71765    0.33618    1.000
    N4023    N        0.52946    0.73695    0.47874    1.000
    Si4024   Si       0.57934    0.72630    0.40709    1.000
    N4025    N        0.54459    0.74354    0.39004    1.000
    N4026    N        0.58685    0.74726    0.44235    1.000
    Si4027   Si       0.57463    0.74366    0.48509    1.000
    Si4028   Si       0.51476    0.71488    0.37856    1.000
    N4029    N        0.60905    0.71795    0.49697    1.000
    N4030    N        0.64684    0.76722    0.45317    1.000
    Si4031   Si       0.64368    0.72924    0.47324    1.000
    N4032    N        0.70791    0.74055    0.43003    1.000
    N4033    N        0.61382    0.73109    0.38023    1.000
    Si4034   Si       0.68090    0.77452    0.42878    1.000
    N4035    N        0.51802    0.73468    0.59840    1.000
    N4036    N        0.55487    0.75656    0.53376    1.000
    N4037    N        0.58407    0.72665    0.59033    1.000
    Si4038   Si       0.55261    0.75364    0.57959    1.000
    Si4039   Si       0.51648    0.76273    0.50918    1.000
    N4040    N        0.70404    0.74650    0.57079    1.000
    Si4041   Si       0.62830    0.73843    0.59118    1.000
    Si4042   Si       0.67524    0.74393    0.53700    1.000
    Si4043   Si       0.73063    0.72510    0.59699    1.000
    N4044    N        0.67733    0.71990    0.49930    1.000
    N4045    N        0.64528    0.71776    0.55638    1.000
    N4046    N        0.58715    0.71445    0.71236    1.000
    N4047    N        0.52544    0.74599    0.67547    1.000
    Si4048   Si       0.56016    0.74650    0.70105    1.000
    Si4049   Si       0.52066    0.76086    0.63263    1.000
    N4050    N        0.54688    0.76280    0.73988    1.000
    Si4051   Si       0.61595    0.72500    0.74530    1.000
    N4052    N        0.67919    0.72230    0.68334    1.000
    Si4053   Si       0.66050    0.75257    0.65732    1.000
    N4054    N        0.69478    0.76609    0.63454    1.000
    N4055    N        0.64186    0.72351    0.62914    1.000
    N4056    N        0.62853    0.76795    0.74035    1.000
    Si4057   Si       0.55408    0.73505    0.77480    1.000
    N4058    N        0.54320    0.75361    0.81407    1.000
    Si4059   Si       0.50281    0.75244    0.79996    1.000
    N4060    N        0.51280    0.71839    0.77221    1.000
    N4061    N        0.59295    0.71862    0.78041    1.000
    Si4062   Si       0.69148    0.72283    0.75331    1.000
    N4063    N        0.69739    0.76553    0.75072    1.000
    Si4064   Si       0.61715    0.74231    0.87081    1.000
    Si4065   Si       0.55115    0.73685    0.91252    1.000
    N4066    N        0.58194    0.72048    0.88685    1.000
    N4067    N        0.53651    0.76755    0.88166    1.000
    N4068    N        0.55948    0.76535    0.94341    1.000
    N4069    N        0.63038    0.74316    0.96453    1.000
    N4070    N        0.72049    0.72026    0.89372    1.000
    N4071    N        0.65793    0.75741    0.88186    1.000
    Si4072   Si       0.67370    0.71688    0.87581    1.000
    N4073    N        0.58942    0.79464    0.09333    1.000
    N4074    N        0.53553    0.79438    0.04392    1.000
    Si4075   Si       0.49902    0.80618    0.07739    1.000
    Si4076   Si       0.52543    0.83040    0.02149    1.000
    Si4077   Si       0.61424    0.82843    0.08061    1.000
    N4078    N        0.72114    0.79924    0.10861    1.000
    N4079    N        0.66841    0.79971    0.06632    1.000
    Si4080   Si       0.68075    0.81741    0.10472    1.000
    Si4081   Si       0.66117    0.82282    0.03076    1.000
    N4082    N        0.65880    0.79791    0.99597    1.000
    N4083    N        0.51280    0.80424    0.20781    1.000
    Si4084   Si       0.60291    0.79624    0.13485    1.000
    Si4085   Si       0.55103    0.78905    0.19021    1.000
    N4086    N        0.57571    0.81366    0.16526    1.000
    N4087    N        0.57235    0.82733    0.23296    1.000
    Si4088   Si       0.72764    0.82604    0.24177    1.000
    Si4089   Si       0.70624    0.80652    0.18691    1.000
    N4090    N        0.68578    0.80695    0.22645    1.000
    N4091    N        0.63685    0.82427    0.12228    1.000
    Si4092   Si       0.64512    0.82096    0.23475    1.000
    N4093    N        0.63037    0.83682    0.19703    1.000
    N4094    N        0.54938    0.79882    0.35091    1.000
    Si4095   Si       0.57423    0.78913    0.31705    1.000
    Si4096   Si       0.58015    0.78703    0.24941    1.000
    N4097    N        0.57344    0.83164    0.30253    1.000
    N4098    N        0.61557    0.77947    0.32967    1.000
    N4099    N        0.71140    0.78265    0.33729    1.000
    N4100    N        0.62238    0.79275    0.25956    1.000
    Si4101   Si       0.69185    0.81485    0.36329    1.000
    Si4102   Si       0.73854    0.80952    0.31523    1.000
    Si4103   Si       0.60855    0.78658    0.44607    1.000
    Si4104   Si       0.53435    0.78684    0.38970    1.000
    N4105    N        0.60056    0.79156    0.40189    1.000
    N4106    N        0.54474    0.81514    0.42473    1.000
    Si4107   Si       0.52230    0.82692    0.45845    1.000
    N4108    N        0.59520    0.78677    0.49012    1.000
    N4109    N        0.49000    0.79569    0.38506    1.000
    Si4110   Si       0.62716    0.77309    0.37380    1.000
    N4111    N        0.72520    0.82785    0.38834    1.000
    N4112    N        0.69917    0.80554    0.45187    1.000
    Si4113   Si       0.68833    0.80975    0.49235    1.000
    N4114    N        0.66829    0.78239    0.38642    1.000
    Si4115   Si       0.73141    0.82387    0.43190    1.000
    Si4116   Si       0.56595    0.79772    0.52455    1.000
    N4117    N        0.59813    0.81189    0.54814    1.000
    N4118    N        0.51276    0.79935    0.56076    1.000
    N4119    N        0.52843    0.80642    0.49964    1.000
    Si4120   Si       0.50131    0.82625    0.52944    1.000
    N4121    N        0.55554    0.78083    0.61491    1.000
    Si4122   Si       0.68823    0.78138    0.59398    1.000
    Si4123   Si       0.62791    0.80566    0.51392    1.000
    N4124    N        0.72479    0.81089    0.58425    1.000
    Si4125   Si       0.62354    0.81771    0.58573    1.000
    N4126    N        0.72604    0.81268    0.51348    1.000
    N4127    N        0.66361    0.78167    0.51932    1.000
    N4128    N        0.64366    0.78015    0.58825    1.000
    N4129    N        0.67803    0.82933    0.62304    1.000
    Si4130   Si       0.51013    0.78657    0.73775    1.000
    Si4131   Si       0.57673    0.80441    0.64417    1.000
    N4132    N        0.52199    0.82502    0.72222    1.000
    N4133    N        0.58142    0.77910    0.68042    1.000
    N4134    N        0.61174    0.82489    0.62520    1.000
    N4135    N        0.59716    0.82799    0.72143    1.000
    N4136    N        0.48835    0.79013    0.62831    1.000
    N4137    N        0.64627    0.79063    0.67539    1.000
    Si4138   Si       0.61415    0.79024    0.70636    1.000
    Si4139   Si       0.64674    0.82731    0.65229    1.000
    Si4140   Si       0.73645    0.77434    0.64942    1.000
    N4141    N        0.73382    0.82257    0.74396    1.000
    N4142    N        0.54954    0.82203    0.83884    1.000
    Si4143   Si       0.55790    0.77963    0.84556    1.000
    N4144    N        0.60735    0.82413    0.79583    1.000
    N4145    N        0.50023    0.79150    0.78013    1.000
    N4146    N        0.60062    0.77676    0.84885    1.000
    Si4147   Si       0.70314    0.80730    0.81749    1.000
    Si4148   Si       0.62842    0.80322    0.82867    1.000
    N4149    N        0.66514    0.78843    0.80699    1.000
    Si4150   Si       0.65993    0.78454    0.76477    1.000
    N4151    N        0.70946    0.80746    0.86162    1.000
    N4152    N        0.64505    0.82471    0.86414    1.000
    N4153    N        0.65954    0.82522    0.74956    1.000
    Si4154   Si       0.59890    0.77382    0.95641    1.000
    N4155    N        0.49595    0.79225    0.92824    1.000
    Si4156   Si       0.53613    0.80245    0.93970    1.000
    N4157    N        0.53043    0.80995    0.98408    1.000
    Si4158   Si       0.49644    0.77882    0.88818    1.000
    N4159    N        0.68405    0.80957    0.92710    1.000
    N4160    N        0.73656    0.80569    0.98353    1.000
    Si4161   Si       0.65708    0.82224    0.95902    1.000
    Si4162   Si       0.72246    0.79989    0.94179    1.000
    Si4163   Si       0.67410    0.79884    0.88409    1.000
    N4164    N        0.61712    0.81213    0.94201    1.000
    N4165    N        0.55465    0.86271    0.02735    1.000
    N4166    N        0.59382    0.86601    0.08985    1.000
    Si4167   Si       0.55330    0.86943    0.06945    1.000
    N4168    N        0.52137    0.84406    0.08936    1.000
    Si4169   Si       0.49888    0.88108    0.10100    1.000
    Si4170   Si       0.59941    0.86257    0.01503    1.000
    N4171    N        0.68228    0.86182    0.02888    1.000
    N4172    N        0.69681    0.85995    0.09718    1.000
    Si4173   Si       0.71539    0.87010    0.05985    1.000
    N4174    N        0.62072    0.83237    0.03825    1.000
    N4175    N        0.56957    0.88170    0.19197    1.000
    Si4176   Si       0.58926    0.84363    0.19626    1.000
    N4177    N        0.49890    0.86950    0.19869    1.000
    Si4178   Si       0.53068    0.89773    0.20699    1.000
    Si4179   Si       0.49776    0.83844    0.23044    1.000
    Si4180   Si       0.67871    0.88357    0.24530    1.000
    N4181    N        0.69187    0.83729    0.15940    1.000
    Si4182   Si       0.64982    0.84610    0.15909    1.000
    Si4183   Si       0.71541    0.86708    0.13658    1.000
    N4184    N        0.64028    0.88592    0.14931    1.000
    N4185    N        0.51908    0.86277    0.33536    1.000
    Si4186   Si       0.56314    0.85406    0.26655    1.000
    N4187    N        0.52159    0.86175    0.26294    1.000
    Si4188   Si       0.55743    0.84110    0.34181    1.000
    Si4189   Si       0.50687    0.88445    0.29919    1.000
    N4190    N        0.58775    0.85149    0.36988    1.000
    N4191    N        0.58732    0.89141    0.26768    1.000
    Si4192   Si       0.50846    0.88982    0.36810    1.000
    N4193    N        0.71385    0.84485    0.32728    1.000
    Si4194   Si       0.62530    0.87009    0.36412    1.000
    Si4195   Si       0.72697    0.88317    0.34393    1.000
    N4196    N        0.64833    0.85632    0.26018    1.000
    N4197    N        0.62849    0.88598    0.32395    1.000
    Si4198   Si       0.62710    0.88462    0.28260    1.000
    N4199    N        0.71858    0.86610    0.24960    1.000
    N4200    N        0.66219    0.84715    0.37458    1.000
    N4201    N        0.50077    0.86583    0.40502    1.000
    N4202    N        0.57090    0.88028    0.42260    1.000
    N4203    N        0.52997    0.86682    0.47664    1.000
    Si4204   Si       0.58215    0.83795    0.41280    1.000
    N4205    N        0.61357    0.83181    0.44454    1.000
    N4206    N        0.73744    0.86068    0.45125    1.000
    Si4207   Si       0.67523    0.88004    0.39910    1.000
    Si4208   Si       0.63824    0.86282    0.46316    1.000
    N4209    N        0.67281    0.88023    0.44282    1.000
    N4210    N        0.50799    0.86656    0.54293    1.000
    N4211    N        0.49600    0.85369    0.60667    1.000
    N4212    N        0.70789    0.87388    0.53948    1.000
    Si4213   Si       0.67268    0.86668    0.59754    1.000
    Si4214   Si       0.66579    0.86746    0.53068    1.000
    N4215    N        0.65439    0.84359    0.56593    1.000
    N4216    N        0.71377    0.87766    0.60797    1.000
    Si4217   Si       0.73081    0.83866    0.54959    1.000
    N4218    N        0.65587    0.83991    0.49781    1.000
    Si4219   Si       0.72222    0.83588    0.61881    1.000
    N4220    N        0.55992    0.88153    0.71367    1.000
    Si4221   Si       0.51328    0.85978    0.64828    1.000
    Si4222   Si       0.55787    0.83794    0.70482    1.000
    N4223    N        0.54918    0.83419    0.66157    1.000
    N4224    N        0.48994    0.88679    0.74644    1.000
    N4225    N        0.65267    0.86678    0.67138    1.000
    N4226    N        0.69476    0.88097    0.73278    1.000
    Si4227   Si       0.57458    0.84920    0.81417    1.000
    N4228    N        0.59637    0.87387    0.84248    1.000
    N4229    N        0.55438    0.87609    0.78817    1.000
    Si4230   Si       0.51197    0.83968    0.84618    1.000
    Si4231   Si       0.51045    0.88624    0.78526    1.000
    N4232    N        0.49334    0.85371    0.80821    1.000
    N4233    N        0.61575    0.88633    0.76002    1.000
    Si4234   Si       0.61935    0.84204    0.75563    1.000
    N4235    N        0.69968    0.84641    0.80121    1.000
    Si4236   Si       0.69731    0.84695    0.75773    1.000
    Si4237   Si       0.69738    0.88260    0.82524    1.000
    N4238    N        0.66405    0.89051    0.85028    1.000
    Si4239   Si       0.63194    0.86586    0.86718    1.000
    N4240    N        0.58479    0.86886    0.97281    1.000
    N4241    N        0.50875    0.87016    0.87792    1.000
    Si4242   Si       0.53261    0.87760    0.91385    1.000
    Si4243   Si       0.59363    0.84828    0.93572    1.000
    N4244    N        0.55449    0.83769    0.92023    1.000
    Si4245   Si       0.54943    0.88719    0.98922    1.000
    N4246    N        0.52045    0.88763    0.95637    1.000
    N4247    N        0.65566    0.86474    0.96834    1.000
    N4248    N        0.61478    0.87576    0.90809    1.000
    N4249    N        0.52895    0.90367    0.07616    1.000
    Si4250   Si       0.59146    0.93826    0.02392    1.000
    Si4251   Si       0.53890    0.94473    0.07389    1.000
    N4252    N        0.55353    0.92842    0.00433    1.000
    N4253    N        0.57959    0.95022    0.06243    1.000
    Si4254   Si       0.61798    0.89548    0.11409    1.000
    N4255    N        0.73955    0.90530    0.04667    1.000
    N4256    N        0.61695    0.90048    0.02079    1.000
    N4257    N        0.63594    0.92841    0.09143    1.000
    N4258    N        0.67757    0.92706    0.03248    1.000
    Si4259   Si       0.65906    0.89521    0.00601    1.000
    Si4260   Si       0.66575    0.94647    0.06923    1.000
    Si4261   Si       0.73282    0.94796    0.05852    1.000
    N4262    N        0.70335    0.94469    0.09105    1.000
    N4263    N        0.49432    0.90288    0.13847    1.000
    Si4264   Si       0.57925    0.91986    0.17516    1.000
    N4265    N        0.58911    0.92317    0.13206    1.000
    N4266    N        0.53791    0.92517    0.23900    1.000
    Si4267   Si       0.51137    0.94139    0.14661    1.000
    N4268    N        0.53829    0.93822    0.18026    1.000
    Si4269   Si       0.70513    0.94437    0.13353    1.000
    Si4270   Si       0.64402    0.93400    0.23323    1.000
    Si4271   Si       0.65059    0.91998    0.17349    1.000
    N4272    N        0.66870    0.90224    0.20913    1.000
    N4273    N        0.71592    0.90630    0.14964    1.000
    N4274    N        0.61661    0.93293    0.19762    1.000
    Si4275   Si       0.56233    0.92518    0.27507    1.000
    N4276    N        0.53018    0.92136    0.30540    1.000
    Si4277   Si       0.53349    0.94764    0.33774    1.000
    N4278    N        0.65936    0.91691    0.27049    1.000
    Si4279   Si       0.69675    0.93231    0.29044    1.000
    N4280    N        0.73019    0.91658    0.31587    1.000
    N4281    N        0.71951    0.93219    0.25356    1.000
    N4282    N        0.53869    0.92049    0.37352    1.000
    Si4283   Si       0.56400    0.91926    0.40804    1.000
    N4284    N        0.55032    0.93203    0.44897    1.000
    Si4285   Si       0.56573    0.89267    0.46584    1.000
    N4286    N        0.61029    0.89334    0.47520    1.000
    Si4287   Si       0.63250    0.94602    0.38967    1.000
    Si4288   Si       0.72550    0.93654    0.39070    1.000
    N4289    N        0.71089    0.92151    0.49319    1.000
    Si4290   Si       0.71213    0.89634    0.45744    1.000
    N4291    N        0.70572    0.90043    0.37776    1.000
    N4292    N        0.63710    0.90189    0.39018    1.000
    N4293    N        0.72299    0.93204    0.43382    1.000
    N4294    N        0.55906    0.91167    0.51028    1.000
    Si4295   Si       0.60410    0.91476    0.51418    1.000
    N4296    N        0.58588    0.90452    0.58268    1.000
    Si4297   Si       0.56619    0.91346    0.61813    1.000
    Si4298   Si       0.52038    0.89188    0.51129    1.000
    Si4299   Si       0.49217    0.94929    0.54503    1.000
    N4300    N        0.64860    0.89994    0.61087    1.000
    Si4301   Si       0.62605    0.91278    0.57690    1.000
    Si4302   Si       0.72241    0.91540    0.53483    1.000
    N4303    N        0.63628    0.89800    0.53643    1.000
    N4304    N        0.71379    0.94655    0.56248    1.000
    N4305    N        0.60804    0.94236    0.73050    1.000
    N4306    N        0.59479    0.90914    0.65496    1.000
    Si4307   Si       0.55935    0.90785    0.68051    1.000
    N4308    N        0.53426    0.89642    0.64385    1.000
    N4309    N        0.54739    0.94795    0.68868    1.000
    N4310    N        0.71681    0.91058    0.66952    1.000
    N4311    N        0.65944    0.92811    0.68298    1.000
    Si4312   Si       0.63761    0.90543    0.65305    1.000
    Si4313   Si       0.73824    0.90376    0.63195    1.000
    Si4314   Si       0.68254    0.89066    0.69255    1.000
    N4315    N        0.55401    0.93296    0.83225    1.000
    Si4316   Si       0.59297    0.91619    0.83608    1.000
    N4317    N        0.54979    0.93159    0.75814    1.000
    N4318    N        0.49843    0.92613    0.80052    1.000
    Si4319   Si       0.53648    0.94832    0.79608    1.000
    N4320    N        0.49001    0.93301    0.86771    1.000
    N4321    N        0.60842    0.93620    0.87041    1.000
    Si4322   Si       0.57259    0.89493    0.75361    1.000
    Si4323   Si       0.53469    0.94254    0.87038    1.000
    N4324    N        0.62202    0.93816    0.80757    1.000
    Si4325   Si       0.70258    0.91844    0.75362    1.000
    N4326    N        0.70849    0.91021    0.79531    1.000
    N4327    N        0.72140    0.91688    0.85424    1.000
    Si4328   Si       0.62930    0.92852    0.76422    1.000
    N4329    N        0.66962    0.94699    0.75176    1.000
    Si4330   Si       0.73316    0.93947    0.81701    1.000
    Si4331   Si       0.68088    0.92434    0.87297    1.000
    N4332    N        0.55214    0.91326    0.89873    1.000
    Si4333   Si       0.59425    0.91452    0.90382    1.000
    N4334    N        0.61106    0.93257    0.93975    1.000
    Si4335   Si       0.71690    0.92192    0.93675    1.000
    N4336    N        0.67863    0.91144    0.91417    1.000
    N4337    N        0.66094    0.92700    0.97354    1.000
    Si4338   Si       0.64547    0.90060    0.94140    1.000
    N4339    N        0.72221    0.92480    0.97874    1.000
    Si4340   Si       0.69250    0.95096    0.99790    1.000
    N4341    N        0.51194    0.96444    0.04508    1.000
    N4342    N        0.53104    0.95837    0.11386    1.000
    N4343    N        0.60653    0.99272    0.11327    1.000
    Si4344   Si       0.52137    0.95672    0.00512    1.000
    N4345    N        0.60918    0.97046    0.00185    1.000
    Si4346   Si       0.59959    0.95299    0.10158    1.000
    N4347    N        0.65035    0.98626    0.05792    1.000
    N4348    N        0.72463    0.97237    0.02329    1.000
    Si4349   Si       0.64376    0.99838    0.01665    1.000
    N4350    N        0.57622    0.98181    0.22691    1.000
    Si4351   Si       0.51691    0.99862    0.12757    1.000
    Si4352   Si       0.53929    0.96367    0.21753    1.000
    N4353    N        0.50801    0.99183    0.22140    1.000
    N4354    N        0.73863    0.96652    0.14654    1.000
    N4355    N        0.65081    0.97586    0.23784    1.000
    Si4356   Si       0.61672    0.99517    0.21730    1.000
    Si4357   Si       0.66389    0.99860    0.15975    1.000
    N4358    N        0.67041    0.95532    0.15464    1.000
    N4359    N        0.55916    0.98346    0.34572    1.000
    Si4360   Si       0.60163    0.97364    0.32668    1.000
    Si4361   Si       0.58645    0.00041    0.26970    1.000
    N4362    N        0.49242    0.96472    0.33761    1.000
    N4363    N        0.58844    0.95685    0.28906    1.000
    Si4364   Si       0.68022    0.99534    0.26605    1.000
    N4365    N        0.63782    0.96328    0.34906    1.000
    N4366    N        0.68746    0.97281    0.30353    1.000
    Si4367   Si       0.67717    0.98258    0.34459    1.000
    N4368    N        0.71545    0.99996    0.24199    1.000
    Si4369   Si       0.56716    0.99031    0.38787    1.000
    Si4370   Si       0.55504    0.97359    0.45074    1.000
    N4371    N        0.59611    0.98714    0.45692    1.000
    N4372    N        0.53683    0.99609    0.41702    1.000
    N4373    N        0.53889    0.98422    0.49164    1.000
    N4374    N        0.59045    0.95300    0.39817    1.000
    N4375    N        0.70824    0.97634    0.37622    1.000
    N4376    N        0.70879    0.99331    0.45647    1.000
    Si4377   Si       0.62110    0.00272    0.42549    1.000
    Si4378   Si       0.72668    0.95703    0.46978    1.000
    Si4379   Si       0.69246    0.99430    0.41428    1.000
    N4380    N        0.65305    0.97615    0.41317    1.000
    Si4381   Si       0.55184    0.98305    0.58675    1.000
    N4382    N        0.53418    0.96009    0.55405    1.000
    N4383    N        0.60008    0.95734    0.52097    1.000
    Si4384   Si       0.55786    0.95513    0.51737    1.000
    N4385    N        0.59014    0.00237    0.57963    1.000
    N4386    N        0.56035    0.95579    0.62044    1.000
    Si4387   Si       0.62004    0.98520    0.55140    1.000
    Si4388   Si       0.67917    0.96646    0.58498    1.000
    N4389    N        0.63949    0.95404    0.57230    1.000
    N4390    N        0.67752    0.00596    0.56910    1.000
    Si4391   Si       0.56769    0.95781    0.72786    1.000
    Si4392   Si       0.57045    0.97237    0.65775    1.000
    N4393    N        0.54331    0.99723    0.72611    1.000
    Si4394   Si       0.51478    0.97757    0.69253    1.000
    N4395    N        0.60766    0.97573    0.67520    1.000
    N4396    N        0.67239    0.99043    0.68636    1.000
    N4397    N        0.63624    0.00221    0.73619    1.000
    N4398    N        0.68106    0.96909    0.62845    1.000
    N4399    N        0.70915    0.00169    0.73904    1.000
    Si4400   Si       0.66622    0.00810    0.64598    1.000
    Si4401   Si       0.63682    0.96785    0.70592    1.000
    Si4402   Si       0.69287    0.95482    0.66893    1.000
    N4403    N        0.73306    0.97188    0.68085    1.000
    N4404    N        0.54904    0.98890    0.79467    1.000
    N4405    N        0.60727    0.00022    0.83897    1.000
    Si4406   Si       0.56424    0.00344    0.83129    1.000
    N4407    N        0.54314    0.98618    0.86651    1.000
    Si4408   Si       0.62902    0.96442    0.84176    1.000
    N4409    N        0.72223    0.98046    0.81005    1.000
    N4410    N        0.66947    0.96260    0.85510    1.000
    Si4411   Si       0.67246    0.99205    0.75890    1.000
    Si4412   Si       0.68749    0.99419    0.83232    1.000
    Si4413   Si       0.57961    0.00154    0.98357    1.000
    N4414    N        0.53890    0.98755    0.98036    1.000
    N4415    N        0.50115    0.97685    0.91486    1.000
    Si4416   Si       0.50884    0.99780    0.95064    1.000
    N4417    N        0.60420    0.00252    0.94881    1.000
    N4418    N        0.66890    0.98554    0.98360    1.000
    N4419    N        0.72378    0.95864    0.91159    1.000
    Si4420   Si       0.63166    0.96089    0.96652    1.000
    N4421    N        0.75664    0.03250    0.03670    1.000
    N4422    N        0.79516    0.03400    0.09279    1.000
    N4423    N        0.85288    0.05795    0.04874    1.000
    Si4424   Si       0.76616    0.05910    0.11512    1.000
    Si4425   Si       0.82663    0.06378    0.08298    1.000
    N4426    N        0.85013    0.04961    0.11487    1.000
    N4427    N        0.97857    0.02961    0.09760    1.000
    Si4428   Si       0.88273    0.02651    0.05059    1.000
    N4429    N        0.90999    0.04561    0.08090    1.000
    Si4430   Si       0.97852    0.01626    0.02599    1.000
    N4431    N        0.89582    0.02004    0.00909    1.000
    N4432    N        0.97007    0.06001    0.03516    1.000
    Si4433   Si       0.93861    0.01547    0.08553    1.000
    Si4434   Si       0.89024    0.06731    0.11394    1.000
    Si4435   Si       0.81546    0.03826    0.23763    1.000
    N4436    N        0.75606    0.03620    0.19362    1.000
    N4437    N        0.81684    0.06475    0.20145    1.000
    Si4438   Si       0.82664    0.01186    0.12408    1.000
    N4439    N        0.95304    0.05908    0.20647    1.000
    Si4440   Si       0.95518    0.01781    0.20417    1.000
    N4441    N        0.90843    0.05209    0.14976    1.000
    N4442    N        0.98506    0.00994    0.17487    1.000
    Si4443   Si       0.83473    0.03266    0.33718    1.000
    N4444    N        0.78433    0.03351    0.26575    1.000
    Si4445   Si       0.76308    0.04650    0.35682    1.000
    N4446    N        0.79911    0.05941    0.33839    1.000
    N4447    N        0.85148    0.06136    0.25454    1.000
    N4448    N        0.75321    0.00947    0.33254    1.000
    N4449    N        0.86597    0.05633    0.31477    1.000
    Si4450   Si       0.95108    0.02984    0.27222    1.000
    Si4451   Si       0.87980    0.03615    0.27525    1.000
    N4452    N        0.91728    0.05447    0.26531    1.000
    N4453    N        0.97619    0.04206    0.34181    1.000
    N4454    N        0.98347    0.06023    0.27561    1.000
    N4455    N        0.92299    0.00576    0.36908    1.000
    N4456    N        0.85617    0.01480    0.37127    1.000
    Si4457   Si       0.78738    0.03642    0.42716    1.000
    N4458    N        0.77008    0.02649    0.46473    1.000
    N4459    N        0.76383    0.02305    0.39405    1.000
    N4460    N        0.82100    0.00981    0.43323    1.000
    Si4461   Si       0.92698    0.03133    0.40447    1.000
    N4462    N        0.93403    0.05371    0.47622    1.000
    N4463    N        0.89180    0.02745    0.43200    1.000
    Si4464   Si       0.89177    0.05651    0.46297    1.000
    N4465    N        0.96377    0.01569    0.42451    1.000
    Si4466   Si       0.96366    0.02497    0.46547    1.000
    N4467    N        0.79116    0.04675    0.54212    1.000
    Si4468   Si       0.82621    0.04773    0.56726    1.000
    N4469    N        0.81265    0.04552    0.60901    1.000
    N4470    N        0.85453    0.01671    0.55936    1.000
    Si4471   Si       0.77608    0.01166    0.52287    1.000
    N4472    N        0.93700    0.02678    0.53943    1.000
    Si4473   Si       0.93881    0.02846    0.58397    1.000
    N4474    N        0.98090    0.02565    0.59324    1.000
    Si4475   Si       0.94038    0.06275    0.51708    1.000
    N4476    N        0.86823    0.04839    0.49850    1.000
    N4477    N        0.92857    0.06808    0.59897    1.000
    N4478    N        0.73954    0.05128    0.70877    1.000
    N4479    N        0.84188    0.04288    0.66849    1.000
    N4480    N        0.80171    0.04639    0.73079    1.000
    Si4481   Si       0.82409    0.01650    0.64056    1.000
    Si4482   Si       0.82368    0.06743    0.69943    1.000
    N4483    N        0.75484    0.06643    0.64031    1.000
    Si4484   Si       0.88210    0.05240    0.68003    1.000
    Si4485   Si       0.94527    0.00855    0.68131    1.000
    N4486    N        0.95859    0.04260    0.65575    1.000
    N4487    N        0.83657    0.03975    0.82202    1.000
    N4488    N        0.76875    0.01845    0.77693    1.000
    Si4489   Si       0.74938    0.04521    0.86840    1.000
    Si4490   Si       0.82854    0.06308    0.85637    1.000
    Si4491   Si       0.75339    0.01126    0.81824    1.000
    Si4492   Si       0.80351    0.00996    0.75309    1.000
    Si4493   Si       0.76008    0.05026    0.74564    1.000
    Si4494   Si       0.86555    0.02081    0.79544    1.000
    N4495    N        0.88999    0.05074    0.77600    1.000
    Si4496   Si       0.93384    0.04965    0.77252    1.000
    Si4497   Si       0.94843    0.05201    0.84811    1.000
    N4498    N        0.95038    0.00913    0.84298    1.000
    N4499    N        0.78851    0.06480    0.87447    1.000
    N4500    N        0.84491    0.05465    0.89557    1.000
    N4501    N        0.78296    0.05409    0.94488    1.000
    N4502    N        0.84272    0.01329    0.95965    1.000
    Si4503   Si       0.79975    0.01320    0.95097    1.000
    Si4504   Si       0.73997    0.05805    0.94543    1.000
    N4505    N        0.98596    0.04934    0.87348    1.000
    N4506    N        0.91421    0.06531    0.87236    1.000
    Si4507   Si       0.87735    0.03618    0.97286    1.000
    Si4508   Si       0.97172    0.05104    0.91592    1.000
    Si4509   Si       0.88645    0.04352    0.89687    1.000
    N4510    N        0.90273    0.04866    0.93838    1.000
    N4511    N        0.81725    0.10534    0.09142    1.000
    N4512    N        0.75144    0.08876    0.08575    1.000
    Si4513   Si       0.86996    0.09192    0.02781    1.000
    N4514    N        0.91262    0.10116    0.04029    1.000
    N4515    N        0.88949    0.10990    0.10576    1.000
    N4516    N        0.95667    0.09950    0.09631    1.000
    Si4517   Si       0.95073    0.09765    0.02080    1.000
    Si4518   Si       0.92051    0.11958    0.07825    1.000
    Si4519   Si       0.97823    0.06847    0.07811    1.000
    Si4520   Si       0.84826    0.08913    0.21919    1.000
    N4521    N        0.78367    0.08144    0.14668    1.000
    N4522    N        0.75385    0.10654    0.20208    1.000
    Si4523   Si       0.80242    0.11690    0.13185    1.000
    Si4524   Si       0.77847    0.07458    0.18673    1.000
    N4525    N        0.82971    0.12631    0.22580    1.000
    Si4526   Si       0.96970    0.11449    0.13562    1.000
    Si4527   Si       0.97839    0.08112    0.23553    1.000
    Si4528   Si       0.92138    0.07698    0.18157    1.000
    N4529    N        0.93580    0.11178    0.16322    1.000
    N4530    N        0.89083    0.09033    0.21013    1.000
    N4531    N        0.94905    0.11406    0.24218    1.000
    Si4532   Si       0.80271    0.10257    0.33405    1.000
    N4533    N        0.81712    0.11065    0.29478    1.000
    Si4534   Si       0.85409    0.08948    0.28991    1.000
    N4535    N        0.76481    0.12365    0.33574    1.000
    N4536    N        0.82521    0.11496    0.36897    1.000
    N4537    N        0.88738    0.11237    0.27756    1.000
    Si4538   Si       0.91114    0.09349    0.24847    1.000
    N4539    N        0.98643    0.10320    0.33785    1.000
    Si4540   Si       0.97758    0.07601    0.37276    1.000
    N4541    N        0.74620    0.12357    0.47216    1.000
    N4542    N        0.79701    0.07646    0.42153    1.000
    Si4543   Si       0.80806    0.11638    0.40932    1.000
    Si4544   Si       0.86349    0.12746    0.46194    1.000
    N4545    N        0.93824    0.07227    0.39551    1.000
    N4546    N        0.88487    0.09417    0.44009    1.000
    Si4547   Si       0.91815    0.10632    0.40976    1.000
    N4548    N        0.77888    0.09892    0.58446    1.000
    N4549    N        0.85119    0.08311    0.56603    1.000
    Si4550   Si       0.85245    0.11615    0.59455    1.000
    N4551    N        0.85197    0.11553    0.50367    1.000
    Si4552   Si       0.76103    0.07179    0.55834    1.000
    Si4553   Si       0.86963    0.08345    0.52779    1.000
    Si4554   Si       0.92139    0.10348    0.57582    1.000
    N4555    N        0.91158    0.09026    0.53691    1.000
    N4556    N        0.97813    0.08403    0.52329    1.000
    Si4557   Si       0.97211    0.12739    0.52849    1.000
    Si4558   Si       0.79284    0.08258    0.62084    1.000
    N4559    N        0.82352    0.11486    0.62702    1.000
    Si4560   Si       0.75165    0.08081    0.68058    1.000
    N4561    N        0.79489    0.09469    0.68264    1.000
    Si4562   Si       0.88924    0.11723    0.70066    1.000
    N4563    N        0.96606    0.11224    0.63672    1.000
    N4564    N        0.86410    0.07684    0.71347    1.000
    Si4565   Si       0.93888    0.07843    0.63964    1.000
    N4566    N        0.95789    0.06381    0.74101    1.000
    N4567    N        0.90579    0.08778    0.66813    1.000
    N4568    N        0.89483    0.12080    0.74549    1.000
    N4569    N        0.83336    0.10458    0.84891    1.000
    N4570    N        0.83623    0.10250    0.77241    1.000
    N4571    N        0.75966    0.08653    0.76710    1.000
    Si4572   Si       0.79168    0.11382    0.76438    1.000
    Si4573   Si       0.83712    0.12414    0.81093    1.000
    Si4574   Si       0.87061    0.08455    0.75454    1.000
    Si4575   Si       0.97822    0.10532    0.80307    1.000
    N4576    N        0.95257    0.06826    0.80764    1.000
    Si4577   Si       0.80803    0.07176    0.91422    1.000
    N4578    N        0.80994    0.11273    0.91666    1.000
    N4579    N        0.96027    0.09454    0.91614    1.000
    Si4580   Si       0.90668    0.08905    0.95658    1.000
    Si4581   Si       0.96536    0.12203    0.95082    1.000
    Si4582   Si       0.92506    0.10155    0.89307    1.000
    N4583    N        0.94049    0.10121    0.97871    1.000
    N4584    N        0.89927    0.11474    0.92376    1.000
    N4585    N        0.87549    0.07786    0.98658    1.000
    N4586    N        0.84883    0.16698    0.09196    1.000
    N4587    N        0.78594    0.15037    0.05584    1.000
    Si4588   Si       0.78495    0.16622    0.01517    1.000
    Si4589   Si       0.82536    0.14014    0.06651    1.000
    Si4590   Si       0.75653    0.13499    0.08420    1.000
    Si4591   Si       0.85665    0.15873    0.00177    1.000
    N4592    N        0.84912    0.12950    0.03210    1.000
    N4593    N        0.93267    0.16071    0.07192    1.000
    Si4594   Si       0.96222    0.18021    0.09910    1.000
    N4595    N        0.89798    0.17494    0.00416    1.000
    N4596    N        0.98101    0.12960    0.02651    1.000
    N4597    N        0.77164    0.14766    0.12308    1.000
    Si4598   Si       0.83023    0.15522    0.19384    1.000
    N4599    N        0.78561    0.16616    0.19075    1.000
    Si4600   Si       0.75416    0.14780    0.21843    1.000
    N4601    N        0.83652    0.13270    0.15477    1.000
    Si4602   Si       0.77580    0.18166    0.14919    1.000
    N4603    N        0.93082    0.17138    0.20478    1.000
    Si4604   Si       0.86906    0.14405    0.12393    1.000
    Si4605   Si       0.96423    0.15182    0.22739    1.000
    Si4606   Si       0.93106    0.15520    0.16640    1.000
    N4607    N        0.89977    0.16934    0.14018    1.000
    N4608    N        0.96612    0.16056    0.13801    1.000
    Si4609   Si       0.80901    0.13809    0.26245    1.000
    N4610    N        0.76696    0.15251    0.26086    1.000
    N4611    N        0.83026    0.17462    0.27076    1.000
    Si4612   Si       0.75517    0.15388    0.36689    1.000
    Si4613   Si       0.86042    0.14015    0.36760    1.000
    N4614    N        0.87254    0.15955    0.32895    1.000
    Si4615   Si       0.91699    0.16455    0.35114    1.000
    Si4616   Si       0.89320    0.15398    0.29070    1.000
    N4617    N        0.93400    0.15660    0.31318    1.000
    N4618    N        0.97310    0.17699    0.26032    1.000
    Si4619   Si       0.97198    0.17474    0.30308    1.000
    N4620    N        0.89182    0.18206    0.25637    1.000
    Si4621   Si       0.74850    0.15322    0.44062    1.000
    N4622    N        0.83188    0.14170    0.43480    1.000
    N4623    N        0.77135    0.14035    0.40528    1.000
    N4624    N        0.84994    0.17947    0.38341    1.000
    Si4625   Si       0.98050    0.17323    0.40280    1.000
    Si4626   Si       0.97785    0.13590    0.45723    1.000
    N4627    N        0.95297    0.14305    0.49367    1.000
    N4628    N        0.88918    0.15884    0.46455    1.000
    N4629    N        0.94324    0.13445    0.43192    1.000
    N4630    N        0.97914    0.18203    0.44566    1.000
    Si4631   Si       0.93074    0.16742    0.46188    1.000
    N4632    N        0.90176    0.13089    0.37750    1.000
    Si4633   Si       0.83393    0.14700    0.52671    1.000
    N4634    N        0.83714    0.14986    0.57299    1.000
    Si4635   Si       0.79420    0.13823    0.57463    1.000
    N4636    N        0.77108    0.16994    0.59492    1.000
    N4637    N        0.79185    0.14025    0.52985    1.000
    Si4638   Si       0.75494    0.12775    0.51421    1.000
    Si4639   Si       0.89910    0.17112    0.60256    1.000
    Si4640   Si       0.96887    0.14540    0.60698    1.000
    N4641    N        0.94340    0.17911    0.61138    1.000
    N4642    N        0.95693    0.12903    0.56871    1.000
    N4643    N        0.89514    0.12736    0.59906    1.000
    N4644    N        0.85354    0.13978    0.68315    1.000
    N4645    N        0.78771    0.14624    0.73611    1.000
    N4646    N        0.78439    0.16078    0.66972    1.000
    Si4647   Si       0.75882    0.15667    0.70374    1.000
    Si4648   Si       0.81476    0.12959    0.66627    1.000
    N4649    N        0.97634    0.17331    0.66797    1.000
    N4650    N        0.91081    0.15619    0.69095    1.000
    N4651    N        0.96630    0.17278    0.72970    1.000
    Si4652   Si       0.87420    0.17629    0.67550    1.000
    N4653    N        0.87149    0.18472    0.63310    1.000
    Si4654   Si       0.94185    0.18595    0.69444    1.000
    N4655    N        0.79573    0.14243    0.79907    1.000
    Si4656   Si       0.76571    0.15279    0.82961    1.000
    Si4657   Si       0.80697    0.17027    0.76758    1.000
    N4658    N        0.84910    0.17381    0.75830    1.000
    N4659    N        0.78985    0.15842    0.86427    1.000
    N4660    N        0.87449    0.14525    0.81439    1.000
    Si4661   Si       0.88544    0.15245    0.77343    1.000
    Si4662   Si       0.89053    0.15585    0.85221    1.000
    N4663    N        0.95845    0.14796    0.80269    1.000
    N4664    N        0.92571    0.13175    0.86302    1.000
    Si4665   Si       0.96218    0.14633    0.84772    1.000
    Si4666   Si       0.95361    0.17789    0.77111    1.000
    Si4667   Si       0.80539    0.14002    0.94952    1.000
    N4668    N        0.84765    0.14188    0.96299    1.000
    N4669    N        0.77397    0.13829    0.98161    1.000
    Si4670   Si       0.82278    0.13426    0.87962    1.000
    N4671    N        0.85929    0.15785    0.88610    1.000
    N4672    N        0.80237    0.18081    0.93259    1.000
    N4673    N        0.98198    0.17114    0.88021    1.000
    N4674    N        0.94998    0.16293    0.94943    1.000
    Si4675   Si       0.87441    0.14980    0.92708    1.000
    N4676    N        0.80441    0.22182    0.07276    1.000
    Si4677   Si       0.76394    0.21642    0.05753    1.000
    Si4678   Si       0.83521    0.20578    0.10162    1.000
    N4679    N        0.75209    0.19311    0.02155    1.000
    N4680    N        0.82186    0.18658    0.00167    1.000
    N4681    N        0.96593    0.20257    0.02540    1.000
    N4682    N        0.94229    0.21859    0.10864    1.000
    N4683    N        0.91181    0.22691    0.04946    1.000
    Si4684   Si       0.92404    0.18794    0.03843    1.000
    N4685    N        0.81168    0.20463    0.13994    1.000
    Si4686   Si       0.84650    0.21923    0.16215    1.000
    N4687    N        0.74583    0.21488    0.23367    1.000
    N4688    N        0.74471    0.21302    0.15585    1.000
    N4689    N        0.85614    0.18866    0.19376    1.000
    N4690    N        0.94252    0.24020    0.23552    1.000
    N4691    N        0.91418    0.22476    0.17741    1.000
    Si4692   Si       0.89731    0.19972    0.21355    1.000
    N4693    N        0.87835    0.23913    0.23236    1.000
    Si4694   Si       0.95294    0.23475    0.19389    1.000
    Si4695   Si       0.90813    0.21286    0.13550    1.000
    N4696    N        0.86846    0.22425    0.12427    1.000
    N4697    N        0.75311    0.19554    0.35736    1.000
    N4698    N        0.81472    0.22071    0.34496    1.000
    N4699    N        0.77433    0.22461    0.28991    1.000
    Si4700   Si       0.85385    0.20786    0.25882    1.000
    Si4701   Si       0.85580    0.20006    0.34265    1.000
    Si4702   Si       0.81379    0.23687    0.30338    1.000
    Si4703   Si       0.74840    0.19134    0.27364    1.000
    N4704    N        0.85815    0.22491    0.30290    1.000
    N4705    N        0.81985    0.23697    0.25484    1.000
    Si4706   Si       0.97085    0.22059    0.26123    1.000
    N4707    N        0.89878    0.21444    0.34833    1.000
    N4708    N        0.96419    0.22078    0.30424    1.000
    Si4709   Si       0.78290    0.22294    0.37317    1.000
    N4710    N        0.75596    0.19045    0.46560    1.000
    N4711    N        0.85115    0.21031    0.44861    1.000
    N4712    N        0.79538    0.20898    0.41323    1.000
    Si4713   Si       0.76730    0.22452    0.44401    1.000
    Si4714   Si       0.82987    0.18417    0.42179    1.000
    N4715    N        0.92029    0.20874    0.47333    1.000
    N4716    N        0.94514    0.18336    0.37910    1.000
    Si4717   Si       0.92938    0.22345    0.37829    1.000
    Si4718   Si       0.87538    0.19842    0.48158    1.000
    N4719    N        0.84113    0.22943    0.57563    1.000
    N4720    N        0.75559    0.23159    0.52126    1.000
    Si4721   Si       0.84771    0.21625    0.61556    1.000
    Si4722   Si       0.73978    0.19550    0.50431    1.000
    N4723    N        0.85101    0.18437    0.51537    1.000
    Si4724   Si       0.86662    0.21211    0.54565    1.000
    Si4725   Si       0.94188    0.20778    0.57322    1.000
    N4726    N        0.90076    0.19560    0.56754    1.000
    N4727    N        0.98136    0.19622    0.55823    1.000
    N4728    N        0.87970    0.23847    0.51399    1.000
    N4729    N        0.94373    0.24026    0.60341    1.000
    Si4730   Si       0.92943    0.24151    0.49945    1.000
    N4731    N        0.94539    0.24032    0.53960    1.000
    Si4732   Si       0.98934    0.22948    0.52981    1.000
    N4733    N        0.80661    0.21698    0.63245    1.000
    Si4734   Si       0.77351    0.18900    0.63533    1.000
    N4735    N        0.75631    0.23956    0.71253    1.000
    N4736    N        0.87157    0.21033    0.70284    1.000
    Si4737   Si       0.87633    0.20699    0.74514    1.000
    N4738    N        0.93690    0.22498    0.67397    1.000
    Si4739   Si       0.96223    0.21028    0.64034    1.000
    N4740    N        0.79224    0.20857    0.77812    1.000
    Si4741   Si       0.76261    0.23158    0.75484    1.000
    Si4742   Si       0.81905    0.24260    0.78059    1.000
    N4743    N        0.97252    0.21527    0.78779    1.000
    N4744    N        0.89489    0.19934    0.85734    1.000
    N4745    N        0.91055    0.18787    0.76561    1.000
    N4746    N        0.82455    0.21804    0.87943    1.000
    N4747    N        0.75185    0.20779    0.89346    1.000
    Si4748   Si       0.80884    0.20912    0.96602    1.000
    N4749    N        0.77223    0.23292    0.96620    1.000
    Si4750   Si       0.79153    0.19182    0.89270    1.000
    N4751    N        0.84060    0.23927    0.95918    1.000
    Si4752   Si       0.73816    0.21185    0.98294    1.000
    Si4753   Si       0.86465    0.20145    0.89045    1.000
    Si4754   Si       0.91735    0.23132    0.87455    1.000
    N4755    N        0.91517    0.23530    0.96953    1.000
    N4756    N        0.94981    0.22374    0.90279    1.000
    Si4757   Si       0.91665    0.18680    0.96597    1.000
    N4758    N        0.88459    0.19123    0.93333    1.000
    Si4759   Si       0.88050    0.23480    0.94137    1.000
    Si4760   Si       0.96574    0.18708    0.91865    1.000
    Si4761   Si       0.80991    0.26011    0.05497    1.000
    N4762    N        0.85190    0.27260    0.05486    1.000
    N4763    N        0.76755    0.25635    0.03793    1.000
    N4764    N        0.80110    0.29088    0.08371    1.000
    Si4765   Si       0.76941    0.29596    0.11141    1.000
    N4766    N        0.82300    0.29558    0.99887    1.000
    N4767    N        0.92233    0.28082    0.07998    1.000
    Si4768   Si       0.89318    0.26648    0.04744    1.000
    N4769    N        0.89579    0.28773    0.01177    1.000
    N4770    N        0.98531    0.25463    0.06392    1.000
    N4771    N        0.96599    0.27629    0.00080    1.000
    Si4772   Si       0.94480    0.24490    0.07537    1.000
    Si4773   Si       0.83807    0.26180    0.22172    1.000
    N4774    N        0.84510    0.26042    0.17772    1.000
    Si4775   Si       0.76420    0.28529    0.18495    1.000
    Si4776   Si       0.83265    0.29723    0.15537    1.000
    N4777    N        0.79201    0.26986    0.21521    1.000
    N4778    N        0.79045    0.28775    0.14923    1.000
    N4779    N        0.85151    0.29968    0.23931    1.000
    Si4780   Si       0.90862    0.26680    0.24585    1.000
    N4781    N        0.96848    0.27123    0.17531    1.000
    N4782    N        0.91364    0.30070    0.21619    1.000
    N4783    N        0.81683    0.28283    0.30425    1.000
    N4784    N        0.75200    0.27949    0.26567    1.000
    Si4785   Si       0.83967    0.29757    0.33765    1.000
    Si4786   Si       0.77677    0.29917    0.29425    1.000
    Si4787   Si       0.77560    0.24628    0.24897    1.000
    N4788    N        0.90681    0.27671    0.28818    1.000
    N4789    N        0.88078    0.28240    0.34635    1.000
    Si4790   Si       0.98084    0.25002    0.33267    1.000
    N4791    N        0.98050    0.29253    0.31997    1.000
    Si4792   Si       0.89403    0.24688    0.31963    1.000
    N4793    N        0.76817    0.26526    0.37672    1.000
    N4794    N        0.85322    0.28351    0.46115    1.000
    N4795    N        0.83845    0.26396    0.40100    1.000
    Si4796   Si       0.80156    0.28962    0.39484    1.000
    Si4797   Si       0.83438    0.24947    0.44195    1.000
    N4798    N        0.79683    0.24624    0.46603    1.000
    N4799    N        0.75443    0.29468    0.48968    1.000
    N4800    N        0.96327    0.24765    0.37228    1.000
    N4801    N        0.97536    0.24449    0.48827    1.000
    N4802    N        0.91897    0.28093    0.48109    1.000
    N4803    N        0.90995    0.24715    0.40883    1.000
    Si4804   Si       0.92640    0.27835    0.43515    1.000
    N4805    N        0.96929    0.28496    0.43079    1.000
    Si4806   Si       0.87993    0.27268    0.39098    1.000
    Si4807   Si       0.87687    0.27712    0.49589    1.000
    N4808    N        0.81071    0.27558    0.53293    1.000
    N4809    N        0.76953    0.25902    0.58352    1.000
    Si4810   Si       0.81073    0.26164    0.57416    1.000
    N4811    N        0.82086    0.28903    0.60891    1.000
    Si4812   Si       0.74837    0.28352    0.61328    1.000
    Si4813   Si       0.78138    0.26162    0.50269    1.000
    Si4814   Si       0.73588    0.24885    0.55771    1.000
    N4815    N        0.89581    0.28643    0.58482    1.000
    Si4816   Si       0.93747    0.27293    0.56966    1.000
    N4817    N        0.97831    0.29341    0.58980    1.000
    Si4818   Si       0.86572    0.28863    0.61543    1.000
    Si4819   Si       0.80906    0.26038    0.64384    1.000
    N4820    N        0.76555    0.26836    0.65201    1.000
    Si4821   Si       0.78767    0.27152    0.71222    1.000
    N4822    N        0.82075    0.26151    0.68702    1.000
    Si4823   Si       0.93181    0.26708    0.68496    1.000
    Si4824   Si       0.86222    0.25015    0.68599    1.000
    N4825    N        0.86169    0.25116    0.63970    1.000
    N4826    N        0.95600    0.27879    0.72191    1.000
    Si4827   Si       0.97037    0.26867    0.62369    1.000
    N4828    N        0.94482    0.29021    0.65100    1.000
    N4829    N        0.89277    0.27910    0.69549    1.000
    N4830    N        0.78957    0.26958    0.75881    1.000
    Si4831   Si       0.81979    0.25376    0.85697    1.000
    N4832    N        0.77573    0.26556    0.85976    1.000
    N4833    N        0.83957    0.24655    0.81968    1.000
    N4834    N        0.85688    0.24265    0.75965    1.000
    N4835    N        0.94355    0.25061    0.84712    1.000
    N4836    N        0.98718    0.27476    0.79709    1.000
    Si4837   Si       0.87317    0.26465    0.79493    1.000
    N4838    N        0.91631    0.26640    0.78383    1.000
    Si4839   Si       0.95058    0.25050    0.80540    1.000
    Si4840   Si       0.92804    0.29390    0.75208    1.000
    Si4841   Si       0.74260    0.24716    0.87956    1.000
    N4842    N        0.83437    0.29334    0.87252    1.000
    Si4843   Si       0.82708    0.28045    0.95931    1.000
    N4844    N        0.79595    0.28954    0.93211    1.000
    Si4845   Si       0.75978    0.27247    0.94944    1.000
    N4846    N        0.75494    0.29694    0.98555    1.000
    N4847    N        0.86265    0.29695    0.93683    1.000
    N4848    N        0.88286    0.24513    0.89895    1.000
    N4849    N        0.98402    0.28466    0.90248    1.000
    Si4850   Si       0.92521    0.27440    0.98261    1.000
    Si4851   Si       0.87166    0.28717    0.89582    1.000
    Si4852   Si       0.97729    0.24833    0.87986    1.000
    N4853    N        0.76543    0.33917    0.11040    1.000
    N4854    N        0.76770    0.33607    0.04248    1.000
    N4855    N        0.85115    0.33652    0.04871    1.000
    Si4856   Si       0.78604    0.32237    0.00410    1.000
    Si4857   Si       0.86151    0.31404    0.01478    1.000
    Si4858   Si       0.84121    0.30734    0.08029    1.000
    N4859    N        0.91551    0.34542    0.09546    1.000
    Si4860   Si       0.93657    0.30990    0.10791    1.000
    N4861    N        0.97977    0.31007    0.10790    1.000
    N4862    N        0.85696    0.30940    0.11979    1.000
    N4863    N        0.84730    0.32978    0.17989    1.000
    Si4864   Si       0.75766    0.35356    0.15061    1.000
    N4865    N        0.74566    0.32572    0.18127    1.000
    Si4866   Si       0.88840    0.33729    0.13236    1.000
    N4867    N        0.91975    0.31456    0.14949    1.000
    Si4868   Si       0.98306    0.35401    0.23118    1.000
    Si4869   Si       0.94303    0.30565    0.18442    1.000
    N4870    N        0.97277    0.33647    0.19236    1.000
    Si4871   Si       0.87681    0.32451    0.21261    1.000
    N4872    N        0.79246    0.33169    0.27163    1.000
    N4873    N        0.75278    0.31151    0.32660    1.000
    N4874    N        0.85690    0.32991    0.30674    1.000
    Si4875   Si       0.83285    0.31293    0.27458    1.000
    N4876    N        0.82009    0.31987    0.36901    1.000
    N4877    N        0.92513    0.33896    0.32659    1.000
    Si4878   Si       0.96758    0.33174    0.33511    1.000
    Si4879   Si       0.89775    0.30970    0.31451    1.000
    Si4880   Si       0.83319    0.32225    0.45370    1.000
    Si4881   Si       0.76267    0.31944    0.45536    1.000
    N4882    N        0.79855    0.31102    0.43136    1.000
    N4883    N        0.81528    0.33635    0.49094    1.000
    N4884    N        0.85688    0.35572    0.43798    1.000
    N4885    N        0.96931    0.33524    0.37930    1.000
    N4886    N        0.92109    0.35163    0.48871    1.000
    Si4887   Si       0.89148    0.34862    0.41298    1.000
    N4888    N        0.90270    0.30669    0.40952    1.000
    Si4889   Si       0.82467    0.31689    0.52680    1.000
    N4890    N        0.81570    0.34066    0.56173    1.000
    Si4891   Si       0.80311    0.32827    0.60335    1.000
    N4892    N        0.75841    0.32483    0.60744    1.000
    N4893    N        0.86755    0.30972    0.52334    1.000
    Si4894   Si       0.95949    0.33318    0.57576    1.000
    Si4895   Si       0.89355    0.31823    0.55648    1.000
    N4896    N        0.93580    0.30978    0.54471    1.000
    Si4897   Si       0.94092    0.31422    0.49973    1.000
    N4898    N        0.94507    0.35043    0.61351    1.000
    N4899    N        0.98476    0.35634    0.54957    1.000
    N4900    N        0.89260    0.35755    0.56768    1.000
    N4901    N        0.98261    0.31250    0.49393    1.000
    N4902    N        0.78290    0.31328    0.71287    1.000
    Si4903   Si       0.75994    0.34707    0.72199    1.000
    N4904    N        0.85392    0.35105    0.68950    1.000
    N4905    N        0.91867    0.34256    0.68322    1.000
    Si4906   Si       0.88526    0.32125    0.70113    1.000
    N4907    N        0.87858    0.32507    0.63591    1.000
    Si4908   Si       0.92211    0.32822    0.64260    1.000
    Si4909   Si       0.79020    0.31215    0.76580    1.000
    N4910    N        0.75371    0.33806    0.76383    1.000
    Si4911   Si       0.83546    0.31666    0.83221    1.000
    N4912    N        0.82700    0.33617    0.75715    1.000
    N4913    N        0.84335    0.35559    0.84756    1.000
    N4914    N        0.79625    0.30941    0.81135    1.000
    N4915    N        0.77041    0.33342    0.86739    1.000
    Si4916   Si       0.76487    0.30220    0.83857    1.000
    N4917    N        0.86564    0.30543    0.80448    1.000
    Si4918   Si       0.86544    0.33410    0.77353    1.000
    N4919    N        0.94944    0.32650    0.77337    1.000
    N4920    N        0.89591    0.32412    0.74419    1.000
    N4921    N        0.75078    0.35027    0.94479    1.000
    Si4922   Si       0.80213    0.31367    0.89663    1.000
    N4923    N        0.81405    0.35383    0.91269    1.000
    N4924    N        0.80383    0.35857    0.98574    1.000
    N4925    N        0.87049    0.34496    0.98346    1.000
    N4926    N        0.92648    0.30549    0.95143    1.000
    N4927    N        0.89810    0.31360    0.87583    1.000
    Si4928   Si       0.96110    0.31539    0.92804    1.000
    N4929    N        0.95286    0.34671    0.89988    1.000
    Si4930   Si       0.91221    0.35234    0.88449    1.000
    N4931    N        0.98206    0.33203    0.96169    1.000
    Si4932   Si       0.88906    0.32840    0.94775    1.000
    N4933    N        0.81305    0.38582    0.08303    1.000
    N4934    N        0.84257    0.40051    0.02299    1.000
    Si4935   Si       0.84992    0.37913    0.06110    1.000
    Si4936   Si       0.77475    0.36297    0.07673    1.000
    N4937    N        0.74208    0.39386    0.07448    1.000
    N4938    N        0.94900    0.40305    0.05612    1.000
    Si4939   Si       0.92148    0.38706    0.08597    1.000
    N4940    N        0.88217    0.40451    0.07893    1.000
    Si4941   Si       0.98406    0.39025    0.03336    1.000
    N4942    N        0.83141    0.40059    0.20023    1.000
    Si4943   Si       0.78843    0.40147    0.19639    1.000
    N4944    N        0.76710    0.37631    0.22621    1.000
    N4945    N        0.79306    0.37454    0.16250    1.000
    Si4946   Si       0.85496    0.39387    0.23538    1.000
    Si4947   Si       0.83592    0.37052    0.16777    1.000
    N4948    N        0.95482    0.38463    0.24217    1.000
    N4949    N        0.93856    0.40205    0.12567    1.000
    Si4950   Si       0.91701    0.39591    0.22681    1.000
    N4951    N        0.88513    0.36401    0.22393    1.000
    Si4952   Si       0.98082    0.41317    0.13755    1.000
    N4953    N        0.87482    0.37718    0.14623    1.000
    Si4954   Si       0.90513    0.40829    0.15243    1.000
    N4955    N        0.81701    0.37819    0.33545    1.000
    N4956    N        0.76585    0.39799    0.29161    1.000
    N4957    N        0.82897    0.38370    0.26857    1.000
    Si4958   Si       0.78662    0.37351    0.26389    1.000
    Si4959   Si       0.78856    0.41072    0.32625    1.000
    Si4960   Si       0.84727    0.37114    0.30613    1.000
    N4961    N        0.93645    0.39741    0.36088    1.000
    N4962    N        0.88347    0.39393    0.31206    1.000
    Si4963   Si       0.90400    0.37413    0.34365    1.000
    N4964    N        0.81509    0.39114    0.40167    1.000
    Si4965   Si       0.84283    0.39704    0.43579    1.000
    N4966    N        0.82072    0.40314    0.47317    1.000
    Si4967   Si       0.79446    0.37384    0.48687    1.000
    N4968    N        0.76348    0.36429    0.45880    1.000
    Si4969   Si       0.83188    0.36207    0.37241    1.000
    Si4970   Si       0.74021    0.39213    0.43689    1.000
    N4971    N        0.97816    0.38986    0.46809    1.000
    Si4972   Si       0.93489    0.38518    0.46608    1.000
    Si4973   Si       0.95502    0.37601    0.39408    1.000
    N4974    N        0.92581    0.37270    0.42418    1.000
    N4975    N        0.87527    0.36233    0.37278    1.000
    N4976    N        0.91253    0.42174    0.47506    1.000
    N4977    N        0.77662    0.39228    0.58979    1.000
    Si4978   Si       0.80204    0.38236    0.55660    1.000
    N4979    N        0.83832    0.40746    0.55453    1.000
    N4980    N        0.77358    0.37992    0.52388    1.000
    Si4981   Si       0.74237    0.36603    0.60123    1.000
    Si4982   Si       0.87668    0.39723    0.57313    1.000
    N4983    N        0.86518    0.39408    0.61526    1.000
    Si4984   Si       0.80333    0.40349    0.63219    1.000
    N4985    N        0.84985    0.39960    0.73497    1.000
    N4986    N        0.78752    0.37952    0.71671    1.000
    N4987    N        0.76844    0.40592    0.65992    1.000
    N4988    N        0.82935    0.41103    0.67185    1.000
    Si4989   Si       0.79381    0.41629    0.69596    1.000
    Si4990   Si       0.82819    0.36290    0.72330    1.000
    Si4991   Si       0.85555    0.36234    0.64502    1.000
    N4992    N        0.81403    0.35836    0.63087    1.000
    Si4993   Si       0.86404    0.41690    0.69766    1.000
    Si4994   Si       0.96187    0.38957    0.62609    1.000
    Si4995   Si       0.93122    0.38143    0.69074    1.000
    N4996    N        0.96616    0.38925    0.66833    1.000
    N4997    N        0.93852    0.38638    0.73409    1.000
    N4998    N        0.90103    0.40858    0.67695    1.000
    N4999    N        0.79095    0.40002    0.85851    1.000
    Si5000   Si       0.75664    0.37538    0.85843    1.000
    N5001    N        0.84561    0.41781    0.81317    1.000
    Si5002   Si       0.86412    0.41192    0.77313    1.000
    Si5003   Si       0.93988    0.40603    0.83670    1.000
    N5004    N        0.90720    0.38416    0.85456    1.000
    N5005    N        0.94181    0.39800    0.79429    1.000
    N5006    N        0.97965    0.38561    0.84691    1.000
    Si5007   Si       0.87183    0.38298    0.83031    1.000
    N5008    N        0.88282    0.37246    0.78655    1.000
    Si5009   Si       0.92457    0.36419    0.77107    1.000
    N5010    N        0.85425    0.40702    0.89340    1.000
    N5011    N        0.77638    0.40674    0.93459    1.000
    N5012    N        0.84313    0.40499    0.95721    1.000
    Si5013   Si       0.84326    0.37634    0.98820    1.000
    Si5014   Si       0.82472    0.37958    0.87945    1.000
    Si5015   Si       0.79276    0.36757    0.94582    1.000
    N5016    N        0.89060    0.35989    0.92020    1.000
    Si5017   Si       0.87718    0.39794    0.93053    1.000
    N5018    N        0.97497    0.39728    0.98899    1.000
    Si5019   Si       0.81560    0.43645    0.01645    1.000
    N5020    N        0.79038    0.44344    0.04964    1.000
    N5021    N        0.83820    0.45421    0.09096    1.000
    N5022    N        0.84785    0.46783    0.02163    1.000
    Si5023   Si       0.80385    0.42873    0.08826    1.000
    N5024    N        0.77203    0.43466    0.11693    1.000
    Si5025   Si       0.76542    0.47907    0.05270    1.000
    Si5026   Si       0.87905    0.44231    0.09938    1.000
    N5027    N        0.91557    0.44022    0.01131    1.000
    Si5028   Si       0.93365    0.44448    0.04962    1.000
    N5029    N        0.90834    0.46580    0.08011    1.000
    Si5030   Si       0.88607    0.47015    0.00278    1.000
    N5031    N        0.96830    0.47361    0.05171    1.000
    Si5032   Si       0.74516    0.46721    0.12454    1.000
    N5033    N        0.76568    0.43796    0.19696    1.000
    N5034    N        0.88748    0.44711    0.14276    1.000
    N5035    N        0.92289    0.42042    0.19085    1.000
    N5036    N        0.98330    0.44688    0.16889    1.000
    Si5037   Si       0.94998    0.45427    0.19449    1.000
    N5038    N        0.96747    0.45677    0.23682    1.000
    Si5039   Si       0.87777    0.46514    0.24369    1.000
    N5040    N        0.81129    0.44637    0.31887    1.000
    Si5041   Si       0.79457    0.47505    0.34922    1.000
    Si5042   Si       0.84261    0.47604    0.30618    1.000
    N5043    N        0.76479    0.42331    0.36204    1.000
    N5044    N        0.84015    0.48214    0.26265    1.000
    N5045    N        0.88485    0.46328    0.30609    1.000
    Si5046   Si       0.95636    0.42716    0.33454    1.000
    Si5047   Si       0.90055    0.42466    0.29100    1.000
    N5048    N        0.94377    0.42542    0.29226    1.000
    N5049    N        0.94926    0.47102    0.34092    1.000
    N5050    N        0.88681    0.42273    0.24737    1.000
    Si5051   Si       0.97212    0.42025    0.26191    1.000
    Si5052   Si       0.84978    0.47250    0.40754    1.000
    Si5053   Si       0.78888    0.42508    0.39592    1.000
    N5054    N        0.81320    0.46059    0.38751    1.000
    N5055    N        0.76149    0.42822    0.43245    1.000
    Si5056   Si       0.74912    0.46519    0.45084    1.000
    N5057    N        0.86541    0.43410    0.42347    1.000
    N5058    N        0.93242    0.45454    0.40953    1.000
    Si5059   Si       0.90521    0.44548    0.43982    1.000
    N5060    N        0.78838    0.44962    0.54397    1.000
    Si5061   Si       0.77213    0.43485    0.58237    1.000
    Si5062   Si       0.83457    0.44980    0.54482    1.000
    N5063    N        0.85791    0.45812    0.50745    1.000
    N5064    N        0.79822    0.44670    0.61544    1.000
    Si5065   Si       0.93899    0.44002    0.57275    1.000
    Si5066   Si       0.89899    0.44107    0.51018    1.000
    N5067    N        0.97722    0.42928    0.55369    1.000
    N5068    N        0.93042    0.47242    0.51484    1.000
    N5069    N        0.90231    0.42430    0.55168    1.000
    N5070    N        0.93557    0.41984    0.61183    1.000
    N5071    N        0.77888    0.44974    0.72140    1.000
    Si5072   Si       0.85757    0.48007    0.66836    1.000
    N5073    N        0.92756    0.45342    0.73618    1.000
    N5074    N        0.98725    0.43546    0.72086    1.000
    Si5075   Si       0.95759    0.46433    0.70790    1.000
    N5076    N        0.94066    0.46330    0.66827    1.000
    Si5077   Si       0.88806    0.47382    0.74039    1.000
    Si5078   Si       0.91256    0.43714    0.64615    1.000
    N5079    N        0.86499    0.45925    0.70566    1.000
    N5080    N        0.87896    0.46455    0.63508    1.000
    N5081    N        0.76869    0.44831    0.81361    1.000
    N5082    N        0.82932    0.46152    0.85427    1.000
    Si5083   Si       0.80507    0.43244    0.83364    1.000
    Si5084   Si       0.85885    0.46474    0.81549    1.000
    N5085    N        0.87354    0.45381    0.77525    1.000
    N5086    N        0.94691    0.44647    0.84556    1.000
    N5087    N        0.97835    0.45237    0.78124    1.000
    Si5088   Si       0.97502    0.46949    0.81949    1.000
    Si5089   Si       0.95456    0.42064    0.75757    1.000
    Si5090   Si       0.85305    0.45178    0.89087    1.000
    N5091    N        0.78948    0.44728    0.98256    1.000
    N5092    N        0.82410    0.46578    0.92137    1.000
    Si5093   Si       0.80885    0.43225    0.94462    1.000
    Si5094   Si       0.75504    0.47115    0.97770    1.000
    Si5095   Si       0.92271    0.46430    0.93121    1.000
    N5096    N        0.89570    0.45696    0.89602    1.000
    Si5097   Si       0.94169    0.42311    0.97896    1.000
    N5098    N        0.96307    0.45524    0.95677    1.000
    N5099    N        0.89217    0.47888    0.95918    1.000
    N5100    N        0.91490    0.41527    0.94595    1.000
    N5101    N        0.79756    0.50535    0.06613    1.000
    Si5102   Si       0.83715    0.48630    0.06104    1.000
    N5103    N        0.86082    0.51732    0.07671    1.000
    N5104    N        0.74300    0.48749    0.01745    1.000
    Si5105   Si       0.89770    0.50851    0.09697    1.000
    Si5106   Si       0.96442    0.50742    0.07976    1.000
    N5107    N        0.89522    0.51291    0.00951    1.000
    N5108    N        0.92633    0.53525    0.07693    1.000
    N5109    N        0.96965    0.50138    0.12265    1.000
    N5110    N        0.74724    0.49499    0.15634    1.000
    N5111    N        0.79166    0.49881    0.21450    1.000
    Si5112   Si       0.83187    0.50413    0.22544    1.000
    Si5113   Si       0.76240    0.51516    0.24343    1.000
    Si5114   Si       0.75742    0.47943    0.19473    1.000
    N5115    N        0.86609    0.48251    0.20356    1.000
    Si5116   Si       0.88999    0.48295    0.16801    1.000
    Si5117   Si       0.92334    0.51878    0.22058    1.000
    Si5118   Si       0.94960    0.52444    0.15264    1.000
    N5119    N        0.93174    0.49382    0.18506    1.000
    N5120    N        0.88760    0.51687    0.13927    1.000
    N5121    N        0.82433    0.50417    0.33406    1.000
    N5122    N        0.75554    0.49211    0.35242    1.000
    N5123    N        0.76377    0.49993    0.28352    1.000
    Si5124   Si       0.86205    0.51941    0.35326    1.000
    N5125    N        0.94750    0.52273    0.29932    1.000
    Si5126   Si       0.91178    0.49758    0.29886    1.000
    N5127    N        0.88739    0.52751    0.31998    1.000
    N5128    N        0.90632    0.49590    0.25553    1.000
    Si5129   Si       0.97746    0.49971    0.32003    1.000
    N5130    N        0.77431    0.48075    0.48112    1.000
    N5131    N        0.76073    0.49762    0.42165    1.000
    Si5132   Si       0.79206    0.51001    0.44974    1.000
    N5133    N        0.83300    0.49600    0.44224    1.000
    Si5134   Si       0.74872    0.52006    0.38737    1.000
    Si5135   Si       0.85683    0.49021    0.47764    1.000
    Si5136   Si       0.93145    0.49846    0.48142    1.000
    N5137    N        0.89706    0.48379    0.45880    1.000
    N5138    N        0.87925    0.48873    0.37856    1.000
    N5139    N        0.94864    0.51173    0.39104    1.000
    N5140    N        0.96689    0.50185    0.45730    1.000
    Si5141   Si       0.92289    0.48003    0.37535    1.000
    Si5142   Si       0.96486    0.48176    0.41898    1.000
    N5143    N        0.78509    0.51479    0.54640    1.000
    Si5144   Si       0.81768    0.51358    0.57522    1.000
    N5145    N        0.80103    0.51887    0.61377    1.000
    Si5146   Si       0.76800    0.48206    0.52361    1.000
    N5147    N        0.85375    0.53009    0.49872    1.000
    N5148    N        0.84691    0.48245    0.57171    1.000
    Si5149   Si       0.94884    0.51141    0.59207    1.000
    N5150    N        0.88140    0.53048    0.60713    1.000
    Si5151   Si       0.88129    0.48774    0.59887    1.000
    N5152    N        0.98128    0.48628    0.60724    1.000
    N5153    N        0.92091    0.48054    0.58458    1.000
    N5154    N        0.74604    0.48613    0.64521    1.000
    N5155    N        0.81298    0.48261    0.66900    1.000
    N5156    N        0.82840    0.50936    0.73339    1.000
    N5157    N        0.76617    0.52070    0.70929    1.000
    Si5158   Si       0.79808    0.48955    0.70983    1.000
    Si5159   Si       0.78819    0.48388    0.63645    1.000
    Si5160   Si       0.86221    0.53014    0.71552    1.000
    N5161    N        0.89557    0.51745    0.73934    1.000
    Si5162   Si       0.93391    0.53502    0.72835    1.000
    N5163    N        0.96418    0.50749    0.71463    1.000
    Si5164   Si       0.96683    0.49260    0.64864    1.000
    N5165    N        0.87399    0.51955    0.67406    1.000
    N5166    N        0.94321    0.52827    0.63558    1.000
    Si5167   Si       0.81668    0.50260    0.84533    1.000
    N5168    N        0.77638    0.51326    0.83974    1.000
    N5169    N        0.77334    0.51587    0.77315    1.000
    Si5170   Si       0.81711    0.52317    0.77324    1.000
    Si5171   Si       0.76030    0.49051    0.80603    1.000
    N5172    N        0.83152    0.49803    0.80431    1.000
    N5173    N        0.95379    0.50520    0.83490    1.000
    N5174    N        0.88904    0.48838    0.83910    1.000
    Si5175   Si       0.88270    0.53137    0.85012    1.000
    Si5176   Si       0.92726    0.48027    0.86467    1.000
    N5177    N        0.76878    0.50194    0.94885    1.000
    Si5178   Si       0.81236    0.50524    0.93618    1.000
    N5179    N        0.83486    0.51990    0.96924    1.000
    Si5180   Si       0.96851    0.52755    0.91257    1.000
    Si5181   Si       0.87684    0.51890    0.96838    1.000
    N5182    N        0.94254    0.49391    0.90459    1.000
    N5183    N        0.81119    0.56747    0.05843    1.000
    Si5184   Si       0.85245    0.55908    0.06927    1.000
    Si5185   Si       0.78293    0.54261    0.08001    1.000
    N5186    N        0.74267    0.55017    0.06292    1.000
    N5187    N        0.76543    0.59692    0.01516    1.000
    N5188    N        0.87402    0.57698    0.10285    1.000
    N5189    N        0.87907    0.57059    0.03703    1.000
    N5190    N        0.94593    0.55741    0.01293    1.000
    Si5191   Si       0.91729    0.57129    0.10031    1.000
    Si5192   Si       0.91195    0.54281    0.03478    1.000
    Si5193   Si       0.98538    0.56610    0.03016    1.000
    N5194    N        0.77625    0.54733    0.12276    1.000
    Si5195   Si       0.75940    0.58363    0.20821    1.000
    Si5196   Si       0.78460    0.58694    0.14151    1.000
    N5197    N        0.79443    0.59130    0.18331    1.000
    N5198    N        0.83630    0.54561    0.24026    1.000
    N5199    N        0.77169    0.55991    0.24297    1.000
    N5200    N        0.86054    0.58715    0.16316    1.000
    N5201    N        0.93009    0.56410    0.14157    1.000
    N5202    N        0.95821    0.54002    0.23417    1.000
    N5203    N        0.98248    0.54952    0.17397    1.000
    Si5204   Si       0.96634    0.58538    0.15386    1.000
    N5205    N        0.89676    0.54882    0.20452    1.000
    Si5206   Si       0.88967    0.55627    0.16299    1.000
    Si5207   Si       0.87197    0.56859    0.23728    1.000
    N5208    N        0.78697    0.56088    0.30557    1.000
    N5209    N        0.84648    0.57979    0.29301    1.000
    Si5210   Si       0.80865    0.57083    0.26787    1.000
    N5211    N        0.84657    0.55888    0.36103    1.000
    Si5212   Si       0.80744    0.54652    0.34073    1.000
    Si5213   Si       0.74528    0.57147    0.31146    1.000
    Si5214   Si       0.88453    0.56864    0.30720    1.000
    N5215    N        0.90283    0.56969    0.26900    1.000
    Si5216   Si       0.94440    0.55755    0.27210    1.000
    Si5217   Si       0.78751    0.57397    0.41463    1.000
    N5218    N        0.78363    0.55343    0.45294    1.000
    Si5219   Si       0.76198    0.57047    0.48647    1.000
    N5220    N        0.78416    0.54912    0.37956    1.000
    N5221    N        0.95694    0.58275    0.36911    1.000
    N5222    N        0.87823    0.57275    0.44684    1.000
    Si5223   Si       0.97542    0.54396    0.37832    1.000
    Si5224   Si       0.88549    0.55642    0.48612    1.000
    N5225    N        0.98716    0.55734    0.41940    1.000
    Si5226   Si       0.96948    0.59707    0.41253    1.000
    N5227    N        0.98662    0.55964    0.49749    1.000
    N5228    N        0.75951    0.57092    0.58627    1.000
    N5229    N        0.79542    0.57629    0.51785    1.000
    Si5230   Si       0.76642    0.55430    0.54665    1.000
    Si5231   Si       0.83632    0.56187    0.52399    1.000
    N5232    N        0.83665    0.55137    0.56545    1.000
    Si5233   Si       0.85934    0.56641    0.59957    1.000
    Si5234   Si       0.78846    0.56035    0.61862    1.000
    N5235    N        0.86800    0.59057    0.51105    1.000
    Si5236   Si       0.95141    0.55751    0.52391    1.000
    N5237    N        0.97017    0.58664    0.61318    1.000
    N5238    N        0.96093    0.54069    0.56271    1.000
    N5239    N        0.92276    0.53731    0.49499    1.000
    N5240    N        0.93632    0.59462    0.53633    1.000
    N5241    N        0.82321    0.58630    0.62043    1.000
    N5242    N        0.76151    0.56861    0.64973    1.000
    N5243    N        0.85228    0.57167    0.71293    1.000
    Si5244   Si       0.82421    0.58730    0.74149    1.000
    Si5245   Si       0.75535    0.54508    0.74329    1.000
    N5246    N        0.77891    0.58031    0.74611    1.000
    Si5247   Si       0.90031    0.53765    0.64517    1.000
    N5248    N        0.88961    0.58104    0.64618    1.000
    Si5249   Si       0.95768    0.56934    0.66128    1.000
    N5250    N        0.92585    0.55817    0.69146    1.000
    Si5251   Si       0.88919    0.58279    0.68996    1.000
    N5252    N        0.83453    0.56415    0.77848    1.000
    N5253    N        0.79313    0.58373    0.85853    1.000
    Si5254   Si       0.76135    0.55300    0.85012    1.000
    N5255    N        0.73916    0.56837    0.81382    1.000
    Si5256   Si       0.86553    0.58183    0.80273    1.000
    N5257    N        0.84088    0.53538    0.85998    1.000
    N5258    N        0.95711    0.58027    0.82450    1.000
    N5259    N        0.89293    0.55022    0.81250    1.000
    Si5260   Si       0.92807    0.57149    0.79412    1.000
    N5261    N        0.95008    0.55607    0.76268    1.000
    Si5262   Si       0.97691    0.54183    0.83644    1.000
    Si5263   Si       0.82319    0.56549    0.88557    1.000
    N5264    N        0.80025    0.54293    0.91387    1.000
    N5265    N        0.85327    0.59371    0.89871    1.000
    N5266    N        0.74240    0.56911    0.95252    1.000
    Si5267   Si       0.75757    0.53939    0.92426    1.000
    N5268    N        0.89550    0.55144    0.94745    1.000
    N5269    N        0.98607    0.54914    0.87877    1.000
    N5270    N        0.96159    0.55780    0.94437    1.000
    N5271    N        0.90495    0.55350    0.88075    1.000
    Si5272   Si       0.92751    0.56597    0.97162    1.000
    Si5273   Si       0.89200    0.57883    0.91258    1.000
    N5274    N        0.80285    0.63874    0.05987    1.000
    Si5275   Si       0.79134    0.63813    0.10112    1.000
    Si5276   Si       0.80271    0.60122    0.03341    1.000
    N5277    N        0.81627    0.60699    0.11896    1.000
    N5278    N        0.83109    0.61217    0.99935    1.000
    N5279    N        0.87091    0.63566    0.04194    1.000
    Si5280   Si       0.97256    0.61905    0.08493    1.000
    Si5281   Si       0.89865    0.63788    0.07457    1.000
    N5282    N        0.93189    0.60821    0.08106    1.000
    Si5283   Si       0.87301    0.60529    0.01196    1.000
    N5284    N        0.88306    0.64171    0.11501    1.000
    N5285    N        0.75719    0.61750    0.12620    1.000
    Si5286   Si       0.85850    0.60930    0.12606    1.000
    N5287    N        0.82863    0.64990    0.17522    1.000
    Si5288   Si       0.83287    0.60970    0.18905    1.000
    N5289    N        0.85370    0.60804    0.22847    1.000
    N5290    N        0.91113    0.65253    0.17805    1.000
    N5291    N        0.99166    0.60124    0.12107    1.000
    Si5292   Si       0.93783    0.63915    0.20890    1.000
    N5293    N        0.96725    0.61541    0.18453    1.000
    Si5294   Si       0.87067    0.64548    0.24427    1.000
    N5295    N        0.81981    0.62318    0.34170    1.000
    Si5296   Si       0.83077    0.62086    0.30041    1.000
    Si5297   Si       0.76227    0.63960    0.27279    1.000
    N5298    N        0.79874    0.61819    0.26938    1.000
    N5299    N        0.74115    0.59970    0.34760    1.000
    Si5300   Si       0.92886    0.62091    0.28929    1.000
    Si5301   Si       0.92027    0.60794    0.36680    1.000
    N5302    N        0.90910    0.60146    0.32397    1.000
    N5303    N        0.93863    0.65076    0.36767    1.000
    N5304    N        0.96358    0.59554    0.28110    1.000
    N5305    N        0.91455    0.63672    0.24767    1.000
    Si5306   Si       0.84017    0.60063    0.37334    1.000
    N5307    N        0.75608    0.60782    0.42017    1.000
    Si5308   Si       0.79016    0.63770    0.41569    1.000
    N5309    N        0.81706    0.60646    0.40839    1.000
    N5310    N        0.74955    0.61278    0.49099    1.000
    Si5311   Si       0.73945    0.63584    0.45299    1.000
    Si5312   Si       0.88679    0.60948    0.42813    1.000
    N5313    N        0.88047    0.64075    0.45663    1.000
    N5314    N        0.92967    0.61058    0.41949    1.000
    N5315    N        0.88114    0.61261    0.38528    1.000
    N5316    N        0.76856    0.63549    0.54744    1.000
    Si5317   Si       0.78926    0.62106    0.51173    1.000
    N5318    N        0.74400    0.63745    0.61070    1.000
    N5319    N        0.82307    0.64319    0.49919    1.000
    Si5320   Si       0.86402    0.63139    0.49654    1.000
    N5321    N        0.89164    0.64581    0.52597    1.000
    Si5322   Si       0.89610    0.60647    0.54253    1.000
    N5323    N        0.92870    0.64354    0.61460    1.000
    N5324    N        0.88263    0.59861    0.58213    1.000
    N5325    N        0.79810    0.64301    0.66648    1.000
    Si5326   Si       0.82204    0.62888    0.63146    1.000
    N5327    N        0.74707    0.64005    0.74096    1.000
    N5328    N        0.95760    0.61388    0.66694    1.000
    N5329    N        0.86525    0.63993    0.64487    1.000
    N5330    N        0.89411    0.62038    0.70834    1.000
    Si5331   Si       0.89345    0.61692    0.61987    1.000
    Si5332   Si       0.96725    0.62646    0.62721    1.000
    N5333    N        0.94767    0.63893    0.73828    1.000
    Si5334   Si       0.94737    0.64677    0.69428    1.000
    Si5335   Si       0.87918    0.65422    0.68344    1.000
    Si5336   Si       0.80618    0.61976    0.83884    1.000
    N5337    N        0.77500    0.62765    0.80764    1.000
    N5338    N        0.84811    0.61571    0.82242    1.000
    Si5339   Si       0.77785    0.62119    0.76376    1.000
    N5340    N        0.82011    0.62864    0.75250    1.000
    N5341    N        0.97067    0.64750    0.80685    1.000
    Si5342   Si       0.95810    0.62052    0.83916    1.000
    Si5343   Si       0.88698    0.63753    0.81696    1.000
    N5344    N        0.91704    0.63091    0.84899    1.000
    Si5345   Si       0.97871    0.63243    0.76730    1.000
    N5346    N        0.90022    0.60758    0.78554    1.000
    Si5347   Si       0.90507    0.63203    0.74915    1.000
    N5348    N        0.81463    0.64966    0.87101    1.000
    Si5349   Si       0.74955    0.60321    0.97514    1.000
    Si5350   Si       0.84596    0.63732    0.89785    1.000
    N5351    N        0.77888    0.62688    0.95154    1.000
    Si5352   Si       0.81463    0.64043    0.96917    1.000
    N5353    N        0.84217    0.65226    0.93983    1.000
    Si5354   Si       0.74529    0.65299    0.94001    1.000
    Si5355   Si       0.91917    0.64683    0.88833    1.000
    N5356    N        0.98068    0.62272    0.87816    1.000
    Si5357   Si       0.92600    0.62977    0.95612    1.000
    N5358    N        0.91586    0.61527    0.91728    1.000
    N5359    N        0.96906    0.62434    0.96190    1.000
    N5360    N        0.90663    0.60404    0.98395    1.000
    N5361    N        0.84602    0.69552    0.05765    1.000
    Si5362   Si       0.76183    0.70523    0.10660    1.000
    Si5363   Si       0.83100    0.66084    0.03591    1.000
    N5364    N        0.80877    0.67503    0.99789    1.000
    N5365    N        0.79241    0.67662    0.11956    1.000
    N5366    N        0.91302    0.67844    0.06943    1.000
    Si5367   Si       0.94793    0.69236    0.09036    1.000
    N5368    N        0.97735    0.66070    0.09014    1.000
    Si5369   Si       0.88824    0.70966    0.05230    1.000
    Si5370   Si       0.79523    0.67400    0.16269    1.000
    Si5371   Si       0.85239    0.68715    0.18255    1.000
    N5372    N        0.80815    0.71018    0.18280    1.000
    N5373    N        0.75552    0.66538    0.17290    1.000
    N5374    N        0.86302    0.68394    0.22382    1.000
    N5375    N        0.95903    0.67304    0.22778    1.000
    N5376    N        0.93549    0.69960    0.13189    1.000
    N5377    N        0.87036    0.70025    0.14549    1.000
    Si5378   Si       0.90248    0.67208    0.14015    1.000
    N5379    N        0.82065    0.69142    0.33114    1.000
    Si5380   Si       0.85630    0.69238    0.30574    1.000
    Si5381   Si       0.75907    0.70637    0.31131    1.000
    N5382    N        0.76096    0.66064    0.31481    1.000
    N5383    N        0.74653    0.67348    0.24879    1.000
    Si5384   Si       0.79489    0.65959    0.34543    1.000
    N5385    N        0.85675    0.65485    0.28430    1.000
    Si5386   Si       0.93053    0.67821    0.25945    1.000
    Si5387   Si       0.93045    0.68029    0.33721    1.000
    N5388    N        0.88938    0.69459    0.33749    1.000
    N5389    N        0.93988    0.66273    0.29830    1.000
    N5390    N        0.78345    0.66653    0.38488    1.000
    Si5391   Si       0.80729    0.68120    0.47793    1.000
    Si5392   Si       0.75504    0.69995    0.39117    1.000
    N5393    N        0.83879    0.69966    0.45346    1.000
    N5394    N        0.78038    0.65993    0.45169    1.000
    Si5395   Si       0.94616    0.70708    0.46021    1.000
    Si5396   Si       0.87787    0.68473    0.44673    1.000
    N5397    N        0.94867    0.66564    0.44490    1.000
    N5398    N        0.89222    0.68118    0.40682    1.000
    Si5399   Si       0.87484    0.70970    0.37727    1.000
    Si5400   Si       0.92629    0.65552    0.40977    1.000
    Si5401   Si       0.83366    0.69952    0.60471    1.000
    N5402    N        0.75978    0.70082    0.57485    1.000
    N5403    N        0.79028    0.70265    0.51153    1.000
    Si5404   Si       0.77192    0.66051    0.58495    1.000
    N5405    N        0.81400    0.65987    0.60130    1.000
    Si5406   Si       0.91527    0.68142    0.53308    1.000
    Si5407   Si       0.91905    0.68653    0.60605    1.000
    N5408    N        0.93787    0.69470    0.56710    1.000
    N5409    N        0.87638    0.70080    0.59926    1.000
    N5410    N        0.94509    0.70012    0.50348    1.000
    Si5411   Si       0.81163    0.68189    0.67935    1.000
    Si5412   Si       0.75553    0.68281    0.73789    1.000
    N5413    N        0.84575    0.67215    0.70297    1.000
    N5414    N        0.78451    0.69809    0.70952    1.000
    N5415    N        0.82328    0.70985    0.64619    1.000
    N5416    N        0.91586    0.67676    0.68367    1.000
    N5417    N        0.98647    0.66909    0.69218    1.000
    N5418    N        0.93344    0.71179    0.63630    1.000
    Si5419   Si       0.98978    0.68920    0.73151    1.000
    N5420    N        0.76907    0.69363    0.77714    1.000
    N5421    N        0.76358    0.68542    0.84713    1.000
    N5422    N        0.83435    0.70762    0.76403    1.000
    Si5423   Si       0.75586    0.66842    0.80856    1.000
    N5424    N        0.83512    0.70952    0.84958    1.000
    Si5425   Si       0.83980    0.66858    0.74531    1.000
    N5426    N        0.88258    0.66714    0.75845    1.000
    Si5427   Si       0.87541    0.69540    0.85931    1.000
    N5428    N        0.88520    0.68037    0.81880    1.000
    Si5429   Si       0.97431    0.69276    0.80343    1.000
    N5430    N        0.96616    0.70558    0.76310    1.000
    Si5431   Si       0.87749    0.70714    0.78162    1.000
    N5432    N        0.95427    0.71211    0.83467    1.000
    Si5433   Si       0.80084    0.69251    0.86951    1.000
    Si5434   Si       0.78191    0.70559    0.98422    1.000
    N5435    N        0.75707    0.69298    0.94860    1.000
    Si5436   Si       0.92469    0.70135    0.98203    1.000
    N5437    N        0.96486    0.69286    0.99010    1.000
    N5438    N        0.88026    0.66717    0.89148    1.000
    N5439    N        0.94952    0.67751    0.89635    1.000
    N5440    N        0.90885    0.66993    0.95805    1.000
    Si5441   Si       0.87468    0.68198    0.93596    1.000
    Si5442   Si       0.82268    0.72977    0.06905    1.000
    N5443    N        0.82846    0.74561    0.11028    1.000
    Si5444   Si       0.75232    0.74341    0.04489    1.000
    N5445    N        0.83987    0.76218    0.04602    1.000
    N5446    N        0.78024    0.72148    0.06835    1.000
    N5447    N        0.74943    0.72499    0.00534    1.000
    Si5448   Si       0.97745    0.72174    0.02224    1.000
    N5449    N        0.88792    0.74138    0.08175    1.000
    N5450    N        0.96922    0.76263    0.01244    1.000
    N5451    N        0.96254    0.72085    0.06206    1.000
    N5452    N        0.89295    0.71707    0.00988    1.000
    N5453    N        0.75769    0.74458    0.12688    1.000
    Si5454   Si       0.79542    0.76988    0.12608    1.000
    Si5455   Si       0.81522    0.74868    0.19687    1.000
    N5456    N        0.85576    0.75238    0.21318    1.000
    N5457    N        0.78771    0.76580    0.22746    1.000
    Si5458   Si       0.86950    0.73827    0.12190    1.000
    N5459    N        0.94229    0.73960    0.19444    1.000
    N5460    N        0.97442    0.75574    0.13535    1.000
    N5461    N        0.89908    0.75798    0.14454    1.000
    Si5462   Si       0.87049    0.72397    0.24114    1.000
    Si5463   Si       0.93615    0.74676    0.23608    1.000
    Si5464   Si       0.93827    0.73948    0.15212    1.000
    Si5465   Si       0.81756    0.75432    0.29258    1.000
    N5466    N        0.77904    0.73893    0.28627    1.000
    N5467    N        0.84813    0.72695    0.27867    1.000
    Si5468   Si       0.80824    0.72435    0.35636    1.000
    N5469    N        0.81942    0.76020    0.33580    1.000
    Si5470   Si       0.75457    0.76175    0.25788    1.000
    N5471    N        0.76597    0.71757    0.35263    1.000
    Si5472   Si       0.92863    0.75323    0.35402    1.000
    N5473    N        0.96907    0.75665    0.26001    1.000
    N5474    N        0.95039    0.71811    0.33991    1.000
    N5475    N        0.91141    0.71615    0.25334    1.000
    N5476    N        0.77568    0.72261    0.42365    1.000
    Si5477   Si       0.74831    0.75221    0.44175    1.000
    Si5478   Si       0.82005    0.73006    0.42854    1.000
    N5479    N        0.75095    0.75122    0.48351    1.000
    N5480    N        0.83565    0.72097    0.38987    1.000
    N5481    N        0.83031    0.76997    0.43976    1.000
    N5482    N        0.95646    0.73626    0.43002    1.000
    N5483    N        0.89870    0.74668    0.38585    1.000
    N5484    N        0.90308    0.72350    0.45914    1.000
    Si5485   Si       0.98588    0.75179    0.40279    1.000
    Si5486   Si       0.91669    0.75369    0.42589    1.000
    N5487    N        0.75397    0.75828    0.61386    1.000
    Si5488   Si       0.78622    0.72485    0.54805    1.000
    N5489    N        0.77384    0.76633    0.54630    1.000
    N5490    N        0.82619    0.72555    0.57000    1.000
    Si5491   Si       0.87021    0.73099    0.56507    1.000
    Si5492   Si       0.95803    0.73016    0.55066    1.000
    N5493    N        0.96738    0.75481    0.58616    1.000
    N5494    N        0.93650    0.76098    0.52528    1.000
    Si5495   Si       0.90478    0.74242    0.49969    1.000
    N5496    N        0.88745    0.71445    0.52856    1.000
    N5497    N        0.87881    0.77344    0.57107    1.000
    N5498    N        0.74573    0.74568    0.68011    1.000
    N5499    N        0.81671    0.76285    0.69089    1.000
    Si5500   Si       0.84441    0.74459    0.66145    1.000
    Si5501   Si       0.78069    0.74287    0.70568    1.000
    N5502    N        0.77199    0.75597    0.74653    1.000
    Si5503   Si       0.92134    0.71933    0.67671    1.000
    N5504    N        0.88366    0.74034    0.68107    1.000
    Si5505   Si       0.88689    0.75912    0.71950    1.000
    Si5506   Si       0.96306    0.74386    0.62708    1.000
    N5507    N        0.95580    0.72767    0.70511    1.000
    N5508    N        0.90010    0.73030    0.74794    1.000
    N5509    N        0.80143    0.75325    0.80880    1.000
    Si5510   Si       0.83992    0.74635    0.82865    1.000
    Si5511   Si       0.79670    0.72804    0.77311    1.000
    N5512    N        0.85082    0.77377    0.86024    1.000
    N5513    N        0.87511    0.74599    0.80368    1.000
    N5514    N        0.94139    0.76683    0.78358    1.000
    Si5515   Si       0.94375    0.74206    0.74602    1.000
    N5516    N        0.74140    0.76123    0.94176    1.000
    N5517    N        0.79851    0.74218    0.97000    1.000
    Si5518   Si       0.81946    0.74243    0.93153    1.000
    Si5519   Si       0.75343    0.72580    0.92272    1.000
    N5520    N        0.85671    0.72086    0.94432    1.000
    Si5521   Si       0.76170    0.76645    0.98402    1.000
    N5522    N        0.79226    0.72324    0.90229    1.000
    N5523    N        0.92060    0.73867    0.95921    1.000
    N5524    N        0.95289    0.76019    0.89352    1.000
    Si5525   Si       0.87982    0.74084    0.97608    1.000
    N5526    N        0.90219    0.72658    0.87399    1.000
    Si5527   Si       0.93530    0.76879    0.93147    1.000
    Si5528   Si       0.94792    0.71691    0.87616    1.000
    Si5529   Si       0.89159    0.76842    0.87665    1.000
    N5530    N        0.79287    0.80595    0.09860    1.000
    Si5531   Si       0.75558    0.82384    0.09228    1.000
    Si5532   Si       0.83468    0.79383    0.01585    1.000
    Si5533   Si       0.76143    0.82271    0.01464    1.000
    Si5534   Si       0.83244    0.82715    0.08805    1.000
    N5535    N        0.85056    0.82177    0.04697    1.000
    N5536    N        0.76944    0.77926    0.02829    1.000
    N5537    N        0.80501    0.81830    0.99562    1.000
    N5538    N        0.86719    0.80535    0.10807    1.000
    N5539    N        0.97114    0.79362    0.07693    1.000
    N5540    N        0.90901    0.80072    0.04796    1.000
    Si5541   Si       0.87413    0.78134    0.06830    1.000
    Si5542   Si       0.95023    0.79159    0.03890    1.000
    N5543    N        0.97019    0.82568    0.02021    1.000
    Si5544   Si       0.78396    0.80230    0.20230    1.000
    N5545    N        0.80220    0.78135    0.16679    1.000
    N5546    N        0.74329    0.81707    0.20347    1.000
    Si5547   Si       0.97075    0.79485    0.11848    1.000
    N5548    N        0.86374    0.82430    0.23493    1.000
    Si5549   Si       0.89653    0.80152    0.13971    1.000
    Si5550   Si       0.87666    0.78947    0.21236    1.000
    N5551    N        0.91169    0.78331    0.23833    1.000
    N5552    N        0.88021    0.81328    0.17667    1.000
    N5553    N        0.93602    0.81601    0.13655    1.000
    N5554    N        0.82211    0.79735    0.28738    1.000
    Si5555   Si       0.81671    0.80365    0.32968    1.000
    N5556    N        0.77481    0.81187    0.33919    1.000
    N5557    N        0.74264    0.80054    0.27244    1.000
    Si5558   Si       0.82929    0.83001    0.25873    1.000
    N5559    N        0.94915    0.82405    0.28189    1.000
    Si5560   Si       0.92392    0.82214    0.31980    1.000
    Si5561   Si       0.90842    0.82281    0.25955    1.000
    Si5562   Si       0.95971    0.78202    0.29131    1.000
    N5563    N        0.92708    0.78053    0.32181    1.000
    N5564    N        0.88862    0.83146    0.29713    1.000
    N5565    N        0.79031    0.80770    0.48617    1.000
    Si5566   Si       0.80362    0.80533    0.44018    1.000
    N5567    N        0.76194    0.79137    0.42994    1.000
    N5568    N        0.84643    0.82706    0.46165    1.000
    Si5569   Si       0.86442    0.78851    0.46137    1.000
    N5570    N        0.95841    0.82828    0.42259    1.000
    N5571    N        0.90287    0.79038    0.44398    1.000
    N5572    N        0.95807    0.81795    0.48788    1.000
    N5573    N        0.95756    0.77362    0.37891    1.000
    Si5574   Si       0.96231    0.81595    0.38236    1.000
    Si5575   Si       0.93120    0.82246    0.45540    1.000
    N5576    N        0.79593    0.80832    0.59924    1.000
    Si5577   Si       0.76264    0.78658    0.58305    1.000
    Si5578   Si       0.75932    0.78376    0.50901    1.000
    N5579    N        0.83660    0.82252    0.53648    1.000
    Si5580   Si       0.87966    0.79894    0.60601    1.000
    Si5581   Si       0.87436    0.79949    0.53703    1.000
    Si5582   Si       0.94321    0.80400    0.52779    1.000
    N5583    N        0.98067    0.81218    0.55035    1.000
    N5584    N        0.91623    0.81984    0.61275    1.000
    N5585    N        0.87508    0.77421    0.50056    1.000
    N5586    N        0.90822    0.82824    0.53612    1.000
    N5587    N        0.74340    0.81882    0.65164    1.000
    Si5588   Si       0.82404    0.80386    0.70545    1.000
    Si5589   Si       0.82341    0.80962    0.63151    1.000
    N5590    N        0.81010    0.82427    0.66924    1.000
    N5591    N        0.80486    0.82586    0.73792    1.000
    N5592    N        0.85018    0.77626    0.63120    1.000
    Si5593   Si       0.95736    0.79112    0.69108    1.000
    N5594    N        0.86510    0.79803    0.71854    1.000
    N5595    N        0.94959    0.77588    0.65186    1.000
    Si5596   Si       0.90022    0.81532    0.73529    1.000
    Si5597   Si       0.95583    0.81987    0.63287    1.000
    N5598    N        0.92725    0.78180    0.72081    1.000
    Si5599   Si       0.78185    0.79068    0.81833    1.000
    N5600    N        0.77992    0.79750    0.86141    1.000
    N5601    N        0.80685    0.82805    0.81224    1.000
    N5602    N        0.73972    0.78832    0.80340    1.000
    Si5603   Si       0.73840    0.78162    0.75880    1.000
    N5604    N        0.91516    0.78558    0.84368    1.000
    Si5605   Si       0.97678    0.79277    0.79314    1.000
    Si5606   Si       0.95289    0.79121    0.86425    1.000
    N5607    N        0.89917    0.81618    0.77880    1.000
    Si5608   Si       0.90332    0.77859    0.80156    1.000
    N5609    N        0.98579    0.78902    0.83539    1.000
    Si5610   Si       0.74800    0.82326    0.87564    1.000
    Si5611   Si       0.81944    0.79654    0.88111    1.000
    N5612    N        0.82759    0.78443    0.92270    1.000
    N5613    N        0.74982    0.82662    0.91864    1.000
    Si5614   Si       0.86208    0.79938    0.94393    1.000
    N5615    N        0.86185    0.77994    0.98298    1.000
    N5616    N        0.89577    0.78388    0.91721    1.000
    N5617    N        0.96794    0.79289    0.95056    1.000
    Si5618   Si       0.98953    0.81445    0.91927    1.000
    Si5619   Si       0.98844    0.79420    0.98944    1.000
    N5620    N        0.82127    0.86934    0.09508    1.000
    N5621    N        0.74776    0.83752    0.05266    1.000
    N5622    N        0.75698    0.85713    0.12134    1.000
    N5623    N        0.84205    0.87925    0.99799    1.000
    N5624    N        0.88697    0.87302    0.07187    1.000
    Si5625   Si       0.94820    0.86370    0.01418    1.000
    N5626    N        0.90531    0.85528    0.00906    1.000
    Si5627   Si       0.88902    0.84020    0.04360    1.000
    N5628    N        0.95402    0.87652    0.05552    1.000
    Si5629   Si       0.92441    0.88733    0.08586    1.000
    Si5630   Si       0.79414    0.87942    0.12685    1.000
    N5631    N        0.81033    0.86422    0.16371    1.000
    Si5632   Si       0.79867    0.87277    0.20332    1.000
    N5633    N        0.79949    0.83423    0.22663    1.000
    Si5634   Si       0.94742    0.88400    0.21993    1.000
    N5635    N        0.88265    0.88834    0.18125    1.000
    Si5636   Si       0.88202    0.84810    0.20281    1.000
    N5637    N        0.97004    0.86838    0.18472    1.000
    Si5638   Si       0.95921    0.85319    0.14679    1.000
    N5639    N        0.93407    0.88409    0.12728    1.000
    N5640    N        0.91760    0.85349    0.22859    1.000
    N5641    N        0.83454    0.86680    0.28328    1.000
    N5642    N        0.76656    0.87805    0.36024    1.000
    N5643    N        0.83711    0.83832    0.34415    1.000
    Si5644   Si       0.86100    0.86147    0.31724    1.000
    Si5645   Si       0.98126    0.84857    0.27062    1.000
    N5646    N        0.88625    0.88600    0.34046    1.000
    N5647    N        0.93235    0.83773    0.35912    1.000
    N5648    N        0.97464    0.88987    0.25664    1.000
    N5649    N        0.80347    0.83223    0.40159    1.000
    Si5650   Si       0.76875    0.83562    0.37588    1.000
    Si5651   Si       0.83562    0.85802    0.38316    1.000
    N5652    N        0.81209    0.87654    0.49773    1.000
    N5653    N        0.91146    0.86079    0.46124    1.000
    Si5654   Si       0.87225    0.85765    0.44325    1.000
    Si5655   Si       0.97016    0.86857    0.42623    1.000
    N5656    N        0.93727    0.88713    0.40229    1.000
    N5657    N        0.87547    0.85183    0.40094    1.000
    Si5658   Si       0.90798    0.86886    0.37574    1.000
    N5659    N        0.77380    0.84585    0.54684    1.000
    N5660    N        0.82128    0.87816    0.57008    1.000
    Si5661   Si       0.85234    0.87754    0.60037    1.000
    Si5662   Si       0.79379    0.88313    0.53653    1.000
    Si5663   Si       0.81090    0.83579    0.56922    1.000
    N5664    N        0.85221    0.83569    0.60880    1.000
    Si5665   Si       0.82125    0.83478    0.49786    1.000
    N5666    N        0.89245    0.87894    0.58486    1.000
    N5667    N        0.95159    0.87955    0.55699    1.000
    Si5668   Si       0.90895    0.87226    0.54524    1.000
    Si5669   Si       0.91406    0.86200    0.61716    1.000
    N5670    N        0.95849    0.86632    0.62138    1.000
    Si5671   Si       0.76603    0.84802    0.73735    1.000
    Si5672   Si       0.77324    0.84662    0.66614    1.000
    N5673    N        0.77410    0.87895    0.63807    1.000
    N5674    N        0.76274    0.86967    0.70087    1.000
    N5675    N        0.98296    0.88082    0.73854    1.000
    Si5676   Si       0.93162    0.86659    0.68389    1.000
    N5677    N        0.89834    0.87363    0.65649    1.000
    N5678    N        0.91993    0.85186    0.72396    1.000
    N5679    N        0.95465    0.83097    0.67476    1.000
    Si5680   Si       0.80325    0.85448    0.84565    1.000
    N5681    N        0.78140    0.87624    0.76882    1.000
    Si5682   Si       0.81489    0.84705    0.77497    1.000
    N5683    N        0.85399    0.86680    0.77080    1.000
    N5684    N        0.76153    0.86127    0.86038    1.000
    Si5685   Si       0.88896    0.85644    0.79197    1.000
    N5686    N        0.89072    0.86758    0.83298    1.000
    Si5687   Si       0.94591    0.86518    0.75619    1.000
    N5688    N        0.92087    0.89013    0.78202    1.000
    N5689    N        0.97154    0.83389    0.77771    1.000
    N5690    N        0.80466    0.86634    0.93842    1.000
    Si5691   Si       0.84098    0.85981    0.91425    1.000
    Si5692   Si       0.76248    0.85982    0.94249    1.000
    Si5693   Si       0.80853    0.85876    0.98210    1.000
    N5694    N        0.82781    0.83851    0.87834    1.000
    N5695    N        0.76372    0.86720    0.98703    1.000
    N5696    N        0.96377    0.82756    0.88569    1.000
    Si5697   Si       0.87873    0.86905    0.97583    1.000
    N5698    N        0.86314    0.84136    0.94712    1.000
    Si5699   Si       0.97048    0.86962    0.87132    1.000
    N5700    N        0.95974    0.88776    0.98046    1.000
    N5701    N        0.84118    0.92437    0.05521    1.000
    Si5702   Si       0.83461    0.91757    0.01098    1.000
    N5703    N        0.79003    0.92540    0.00425    1.000
    Si5704   Si       0.75127    0.90543    0.00347    1.000
    Si5705   Si       0.85325    0.89622    0.08388    1.000
    N5706    N        0.93173    0.93189    0.08466    1.000
    N5707    N        0.92999    0.94693    0.00741    1.000
    Si5708   Si       0.94680    0.95130    0.04735    1.000
    Si5709   Si       0.85557    0.91848    0.19674    1.000
    N5710    N        0.78020    0.92149    0.13616    1.000
    Si5711   Si       0.75244    0.92589    0.16965    1.000
    N5712    N        0.83063    0.94456    0.17535    1.000
    Si5713   Si       0.74500    0.89812    0.24052    1.000
    N5714    N        0.83023    0.89547    0.22454    1.000
    N5715    N        0.76000    0.89329    0.19959    1.000
    N5716    N        0.94151    0.92839    0.22262    1.000
    N5717    N        0.86687    0.91653    0.12116    1.000
    Si5718   Si       0.89997    0.90183    0.14447    1.000
    N5719    N        0.91626    0.94103    0.15767    1.000
    Si5720   Si       0.93888    0.95141    0.12241    1.000
    N5721    N        0.87821    0.94950    0.21673    1.000
    Si5722   Si       0.76808    0.92938    0.29809    1.000
    Si5723   Si       0.82030    0.90407    0.26551    1.000
    N5724    N        0.80251    0.92779    0.32515    1.000
    N5725    N        0.77756    0.89883    0.26883    1.000
    N5726    N        0.83923    0.94152    0.27338    1.000
    Si5727   Si       0.79155    0.91426    0.36589    1.000
    N5728    N        0.92596    0.93355    0.29444    1.000
    Si5729   Si       0.90471    0.92406    0.33145    1.000
    Si5730   Si       0.95747    0.92970    0.26446    1.000
    N5731    N        0.91626    0.93991    0.36972    1.000
    Si5732   Si       0.84494    0.92878    0.41935    1.000
    N5733    N        0.82822    0.90193    0.38911    1.000
    Si5734   Si       0.82809    0.91291    0.48058    1.000
    N5735    N        0.81733    0.94382    0.44950    1.000
    N5736    N        0.86364    0.90001    0.45266    1.000
    N5737    N        0.76745    0.94770    0.38091    1.000
    N5738    N        0.92998    0.92877    0.45053    1.000
    Si5739   Si       0.93500    0.93090    0.40798    1.000
    Si5740   Si       0.90336    0.90272    0.47305    1.000
    N5741    N        0.76609    0.91380    0.53258    1.000
    N5742    N        0.82856    0.93458    0.51786    1.000
    N5743    N        0.76303    0.93786    0.61847    1.000
    Si5744   Si       0.78809    0.95009    0.51976    1.000
    Si5745   Si       0.87232    0.94003    0.52924    1.000
    N5746    N        0.93532    0.92540    0.61137    1.000
    N5747    N        0.89337    0.90391    0.51749    1.000
    Si5748   Si       0.96758    0.90129    0.59717    1.000
    Si5749   Si       0.97761    0.94473    0.53662    1.000
    N5750    N        0.97938    0.92326    0.49926    1.000
    N5751    N        0.87404    0.95130    0.57357    1.000
    N5752    N        0.74296    0.93071    0.73999    1.000
    N5753    N        0.83829    0.90392    0.63404    1.000
    N5754    N        0.78748    0.92963    0.68072    1.000
    Si5755   Si       0.75148    0.91065    0.69784    1.000
    Si5756   Si       0.79808    0.91547    0.63903    1.000
    N5757    N        0.85468    0.89192    0.70431    1.000
    Si5758   Si       0.85472    0.90246    0.74568    1.000
    N5759    N        0.82117    0.92931    0.75475    1.000
    N5760    N        0.95517    0.94412    0.73706    1.000
    Si5761   Si       0.97798    0.91603    0.71459    1.000
    Si5762   Si       0.93364    0.93420    0.65427    1.000
    N5763    N        0.89277    0.94068    0.66529    1.000
    N5764    N        0.95182    0.90604    0.68195    1.000
    Si5765   Si       0.86708    0.90283    0.66512    1.000
    Si5766   Si       0.77929    0.91968    0.76677    1.000
    Si5767   Si       0.80537    0.93393    0.83948    1.000
    N5768    N        0.77583    0.93509    0.80758    1.000
    N5769    N        0.82188    0.89339    0.83924    1.000
    Si5770   Si       0.86232    0.89286    0.85451    1.000
    N5771    N        0.88595    0.92902    0.84495    1.000
    Si5772   Si       0.92433    0.93013    0.76605    1.000
    Si5773   Si       0.97306    0.93559    0.83282    1.000
    Si5774   Si       0.91643    0.90643    0.82399    1.000
    N5775    N        0.95423    0.89916    0.84481    1.000
    N5776    N        0.93857    0.94566    0.80489    1.000
    N5777    N        0.88354    0.93546    0.75217    1.000
    N5778    N        0.78356    0.93407    0.87883    1.000
    Si5779   Si       0.75377    0.90002    0.87907    1.000
    N5780    N        0.74417    0.89419    0.92180    1.000
    N5781    N        0.85245    0.95081    0.92457    1.000
    Si5782   Si       0.98508    0.88837    0.94531    1.000
    N5783    N        0.86601    0.89080    0.89783    1.000
    N5784    N        0.96396    0.94514    0.94732    1.000
    Si5785   Si       0.95910    0.93744    0.90351    1.000
    Si5786   Si       0.88400    0.92225    0.91901    1.000
    Si5787   Si       0.93517    0.92327    0.97211    1.000
    N5788    N        0.96699    0.89586    0.90608    1.000
    N5789    N        0.91693    0.94518    0.90440    1.000
    N5790    N        0.89693    0.90550    0.95917    1.000
    N5791    N        0.81034    0.98671    0.04163    1.000
    N5792    N        0.82163    0.96933    0.10659    1.000
    Si5793   Si       0.83961    0.96597    0.06592    1.000
    N5794    N        0.76110    0.97126    0.08209    1.000
    Si5795   Si       0.80287    0.96699    0.00428    1.000
    Si5796   Si       0.74298    0.00763    0.00484    1.000
    Si5797   Si       0.77858    0.00719    0.06425    1.000
    N5798    N        0.87628    0.98825    0.06988    1.000
    N5799    N        0.94730    0.99555    0.04811    1.000
    Si5800   Si       0.92583    0.98995    0.99811    1.000
    Si5801   Si       0.77965    0.96461    0.12244    1.000
    Si5802   Si       0.74500    0.96869    0.24175    1.000
    N5803    N        0.79257    0.99983    0.15257    1.000
    N5804    N        0.76643    0.95831    0.20493    1.000
    Si5805   Si       0.80390    0.97786    0.19169    1.000
    N5806    N        0.82473    0.99720    0.22434    1.000
    Si5807   Si       0.84984    0.95391    0.13699    1.000
    Si5808   Si       0.85406    0.97274    0.24389    1.000
    Si5809   Si       0.91747    0.95585    0.19941    1.000
    N5810    N        0.98284    0.95538    0.12711    1.000
    Si5811   Si       0.98065    0.99965    0.13280    1.000
    N5812    N        0.91976    0.99879    0.19196    1.000
    Si5813   Si       0.90384    0.00904    0.15312    1.000
    N5814    N        0.93301    0.99437    0.12230    1.000
    N5815    N        0.97024    0.00269    0.24178    1.000
    N5816    N        0.86357    0.99411    0.14763    1.000
    N5817    N        0.77021    0.96622    0.27706    1.000
    Si5818   Si       0.83445    0.95842    0.31193    1.000
    N5819    N        0.81816    0.99876    0.31698    1.000
    Si5820   Si       0.77749    0.00565    0.29641    1.000
    Si5821   Si       0.75203    0.98772    0.37170    1.000
    N5822    N        0.93981    0.00166    0.30278    1.000
    N5823    N        0.87571    0.95936    0.32805    1.000
    Si5824   Si       0.90581    0.97310    0.29592    1.000
    N5825    N        0.88107    0.99455    0.26818    1.000
    Si5826   Si       0.89001    0.97422    0.37003    1.000
    Si5827   Si       0.95865    0.00352    0.34180    1.000
    Si5828   Si       0.80087    0.98578    0.46323    1.000
    N5829    N        0.76725    0.96488    0.48438    1.000
    Si5830   Si       0.85796    0.00631    0.41218    1.000
    N5831    N        0.97683    0.94693    0.40546    1.000
    Si5832   Si       0.96499    0.95037    0.46678    1.000
    N5833    N        0.86920    0.96341    0.40715    1.000
    N5834    N        0.95329    0.98759    0.48566    1.000
    N5835    N        0.77755    0.97678    0.55247    1.000
    Si5836   Si       0.75073    0.96180    0.58299    1.000
    N5837    N        0.81608    0.99822    0.50380    1.000
    N5838    N        0.74111    0.99560    0.61010    1.000
    Si5839   Si       0.85545    0.01080    0.51647    1.000
    Si5840   Si       0.91662    0.95230    0.58309    1.000
    Si5841   Si       0.87046    0.99332    0.59058    1.000
    Si5842   Si       0.92683    0.98903    0.52163    1.000
    N5843    N        0.91473    0.99489    0.59787    1.000
    N5844    N        0.88488    0.97968    0.51122    1.000
    N5845    N        0.93724    0.95541    0.54671    1.000
    Si5846   Si       0.74132    0.97346    0.72489    1.000
    N5847    N        0.84548    0.97159    0.70083    1.000
    Si5848   Si       0.75610    0.97474    0.64364    1.000
    Si5849   Si       0.80360    0.96751    0.69104    1.000
    N5850    N        0.79440    0.98948    0.65552    1.000
    N5851    N        0.78358    0.98179    0.72714    1.000
    N5852    N        0.85569    0.98992    0.63137    1.000
    Si5853   Si       0.84922    0.96122    0.74331    1.000
    N5854    N        0.95636    0.97158    0.66276    1.000
    Si5855   Si       0.87398    0.97971    0.66907    1.000
    N5856    N        0.98041    0.00554    0.70845    1.000
    N5857    N        0.90160    0.01352    0.68354    1.000
    Si5858   Si       0.97314    0.98369    0.74643    1.000
    N5859    N        0.83288    0.96199    0.85705    1.000
    N5860    N        0.84293    0.99953    0.76645    1.000
    N5861    N        0.75962    0.00292    0.85928    1.000
    Si5862   Si       0.92901    0.98817    0.80884    1.000
    N5863    N        0.88847    0.99150    0.81820    1.000
    Si5864   Si       0.87532    0.97082    0.85522    1.000
    N5865    N        0.94452    0.00457    0.77242    1.000
    Si5866   Si       0.98426    0.00112    0.86733    1.000
    N5867    N        0.97883    0.95788    0.87029    1.000
    N5868    N        0.77867    0.99440    0.98308    1.000
    Si5869   Si       0.75987    0.97051    0.89271    1.000
    N5870    N        0.79270    0.98546    0.91655    1.000
    Si5871   Si       0.81841    0.95573    0.89828    1.000
    N5872    N        0.84411    0.95417    0.99227    1.000
    N5873    N        0.96894    0.00221    0.98654    1.000
    N5874    N        0.90422    0.98167    0.95715    1.000
    N5875    N        0.88885    0.99945    0.88627    1.000
    Si5876   Si       0.86145    0.97337    0.95977    1.000
    N5877    N        0.95840    0.00729    0.91333    1.000
    Si5878   Si       0.97972    0.98672    0.94720    1.000
    Si5879   Si       0.91801    0.98613    0.91650    1.000
