# CIF file generated by openbabel 3.1.1, see https://openbabel.org
data_I
_chemical_name_common '3.01-19.aims'
_cell_length_a 39.9301
_cell_length_b 39.9301
_cell_length_c 39.9301
_cell_angle_alpha 90
_cell_angle_beta 90
_cell_angle_gamma 90
loop_
    _atom_site_label
    _atom_site_type_symbol
    _atom_site_fract_x
    _atom_site_fract_y
    _atom_site_fract_z
    _atom_site_occupancy
    N0       N        0.02641    0.04424    0.05886    1.000
    Si1      Si       0.03515    0.05777    0.01907    1.000
    N2       N        0.01160    0.03364    0.11885    1.000
    Si3      Si       0.99324    0.05402    0.08552    1.000
    N4       N        0.00039    0.05316    0.99227    1.000
    N5       N        0.02655    0.17031    0.07334    1.000
    N6       N        0.02364    0.22466    0.03199    1.000
    Si7      Si       0.01276    0.24284    0.06970    1.000
    N8       N        0.04232    0.06329    0.19027    1.000
    N9       N        0.99306    0.09911    0.16157    1.000
    Si10     Si       0.99232    0.12067    0.12489    1.000
    Si11     Si       0.03491    0.01993    0.18921    1.000
    Si12     Si       0.03468    0.10407    0.17286    1.000
    N13      N        0.03272    0.13350    0.13239    1.000
    N14      N        0.04340    0.00821    0.22997    1.000
    N15      N        0.00845    0.19520    0.23852    1.000
    Si16     Si       0.00123    0.15498    0.22307    1.000
    Si17     Si       0.02592    0.23301    0.17531    1.000
    N18      N        0.01904    0.19404    0.15731    1.000
    N19      N        0.03684    0.13806    0.20313    1.000
    N20      N        0.01083    0.06103    0.32922    1.000
    N21      N        0.02856    0.12384    0.32010    1.000
    Si22     Si       0.99147    0.12084    0.29850    1.000
    N23      N        0.99316    0.12450    0.25450    1.000
    Si24     Si       0.00372    0.05736    0.37396    1.000
    Si25     Si       0.04657    0.08407    0.31844    1.000
    N26      N        0.99997    0.21263    0.30443    1.000
    N27      N        0.01002    0.17977    0.36154    1.000
    Si28     Si       0.04182    0.15610    0.34533    1.000
    Si29     Si       0.04045    0.22590    0.31430    1.000
    N30      N        0.00923    0.01590    0.38860    1.000
    Si31     Si       0.02391    0.09740    0.43090    1.000
    N32      N        0.03461    0.07990    0.39346    1.000
    N33      N        0.00315    0.06082    0.44560    1.000
    Si34     Si       0.00217    0.01541    0.43298    1.000
    Si35     Si       0.04299    0.05446    0.47052    1.000
    N36      N        0.02778    0.24979    0.47742    1.000
    N37      N        0.00868    0.13773    0.43547    1.000
    Si38     Si       0.99353    0.21942    0.47511    1.000
    Si39     Si       0.99493    0.20319    0.39677    1.000
    N40      N        0.01197    0.17968    0.49282    1.000
    Si41     Si       0.03189    0.16687    0.45739    1.000
    N42      N        0.01833    0.20381    0.43501    1.000
    N43      N        0.02765    0.05572    0.51185    1.000
    N44      N        0.01775    0.12301    0.53688    1.000
    Si45     Si       0.99808    0.08622    0.52262    1.000
    N46      N        0.00265    0.04204    0.60976    1.000
    N47      N        0.03638    0.00796    0.55925    1.000
    N48      N        0.03216    0.24326    0.54713    1.000
    N49      N        0.99962    0.18668    0.56363    1.000
    Si50     Si       0.99272    0.22760    0.54978    1.000
    Si51     Si       0.99722    0.16112    0.52995    1.000
    N52      N        0.02071    0.14932    0.61953    1.000
    Si53     Si       0.98949    0.24868    0.62091    1.000
    N54      N        0.03614    0.05174    0.73707    1.000
    N55      N        0.99409    0.11226    0.71394    1.000
    Si56     Si       0.02721    0.08434    0.71052    1.000
    Si57     Si       0.00606    0.03475    0.65225    1.000
    N58      N        0.03050    0.06590    0.67189    1.000
    Si59     Si       0.02396    0.14614    0.71716    1.000
    N60      N        0.04246    0.23581    0.67562    1.000
    Si61     Si       0.04535    0.19437    0.67352    1.000
    N62      N        0.00946    0.17274    0.68633    1.000
    N63      N        0.02995    0.08165    0.85243    1.000
    Si64     Si       0.03470    0.05410    0.78087    1.000
    N65      N        0.99960    0.07949    0.78941    1.000
    N66      N        0.02583    0.01496    0.79806    1.000
    Si67     Si       0.99044    0.08013    0.83464    1.000
    N68      N        0.01801    0.17984    0.82174    1.000
    Si69     Si       0.00547    0.17989    0.86392    1.000
    N70      N        0.01846    0.16777    0.75575    1.000
    Si71     Si       0.00882    0.25245    0.76603    1.000
    Si72     Si       0.99050    0.18418    0.78744    1.000
    N73      N        0.01348    0.22403    0.87504    1.000
    N74      N        0.04580    0.23490    0.75032    1.000
    Si75     Si       0.02726    0.07211    0.89536    1.000
    N76      N        0.01264    0.03087    0.89502    1.000
    N77      N        0.99878    0.10094    0.90973    1.000
    Si78     Si       0.99372    0.01292    0.97639    1.000
    N79      N        0.99433    0.12743    0.99310    1.000
    Si80     Si       0.03664    0.13070    0.99428    1.000
    N81      N        0.04651    0.13161    0.95351    1.000
    Si82     Si       0.01529    0.13790    0.92553    1.000
    Si83     Si       0.01802    0.24536    0.99504    1.000
    Si84     Si       0.99178    0.19878    0.95225    1.000
    N85      N        0.02889    0.21876    0.96136    1.000
    N86      N        0.03304    0.15874    0.89179    1.000
    Si87     Si       0.00793    0.32548    0.06345    1.000
    N88      N        0.01125    0.28559    0.08074    1.000
    N89      N        0.99051    0.34918    0.09378    1.000
    Si90     Si       0.04497    0.27651    0.10928    1.000
    N91      N        0.03337    0.38443    0.99920    1.000
    N92      N        0.01439    0.44693    0.08920    1.000
    Si93     Si       0.00875    0.46161    0.04893    1.000
    Si94     Si       0.99535    0.47188    0.11785    1.000
    N95      N        0.04801    0.46916    0.03241    1.000
    N96      N        0.02307    0.30317    0.20748    1.000
    Si97     Si       0.00367    0.35080    0.13471    1.000
    Si98     Si       0.04266    0.33085    0.23340    1.000
    N99      N        0.03827    0.32681    0.14167    1.000
    N100     N        0.04219    0.26352    0.14998    1.000
    Si101    Si       0.98829    0.27827    0.21707    1.000
    Si102    Si       0.02172    0.45633    0.23560    1.000
    N103     N        0.00217    0.38780    0.16036    1.000
    N104     N        0.01562    0.46139    0.15568    1.000
    N105     N        0.03624    0.49454    0.22047    1.000
    N106     N        0.04001    0.42271    0.21168    1.000
    Si107    Si       0.02726    0.42260    0.16892    1.000
    Si108    Si       0.02383    0.49707    0.18111    1.000
    Si109    Si       0.02340    0.30010    0.33643    1.000
    Si110    Si       0.00081    0.34005    0.29368    1.000
    N111     N        0.01226    0.35360    0.25330    1.000
    N112     N        0.98842    0.30010    0.30889    1.000
    N113     N        0.99050    0.36971    0.32232    1.000
    N114     N        0.04348    0.26119    0.33967    1.000
    Si115    Si       0.02571    0.38759    0.33956    1.000
    Si116    Si       0.00927    0.46272    0.30982    1.000
    N117     N        0.01135    0.43019    0.33985    1.000
    N118     N        0.02068    0.49747    0.33418    1.000
    N119     N        0.03789    0.45852    0.27637    1.000
    N120     N        0.01109    0.31081    0.37590    1.000
    Si121    Si       0.02519    0.34098    0.40367    1.000
    Si122    Si       0.00645    0.36552    0.47560    1.000
    N123     N        0.00794    0.36910    0.43287    1.000
    Si124    Si       0.03598    0.30036    0.45812    1.000
    Si125    Si       0.00047    0.27771    0.40266    1.000
    N126     N        0.99710    0.29966    0.44105    1.000
    N127     N        0.03124    0.33308    0.49009    1.000
    N128     N        0.03368    0.37789    0.38095    1.000
    N129     N        0.04101    0.26051    0.40768    1.000
    Si130    Si       0.99244    0.45773    0.44885    1.000
    N131     N        0.99996    0.43347    0.41362    1.000
    N132     N        0.02219    0.39986    0.49460    1.000
    Si133    Si       0.03031    0.40176    0.41552    1.000
    N134     N        0.03129    0.45970    0.47142    1.000
    N135     N        0.99057    0.49851    0.43756    1.000
    N136     N        0.02939    0.26528    0.61213    1.000
    Si137    Si       0.00757    0.48232    0.56900    1.000
    N138     N        0.00754    0.46515    0.52898    1.000
    Si139    Si       0.04212    0.48435    0.50479    1.000
    N140     N        0.02808    0.39927    0.60680    1.000
    N141     N        0.98964    0.46410    0.60390    1.000
    Si142    Si       0.99206    0.42693    0.51369    1.000
    N143     N        0.99954    0.27258    0.72778    1.000
    Si144    Si       0.03592    0.36934    0.64246    1.000
    N145     N        0.02961    0.29763    0.67617    1.000
    N146     N        0.99753    0.34906    0.64498    1.000
    Si147    Si       0.03906    0.26394    0.71016    1.000
    Si148    Si       0.98854    0.31209    0.66888    1.000
    N149     N        0.04844    0.38124    0.68239    1.000
    Si150    Si       0.99581    0.42364    0.61848    1.000
    N151     N        0.01206    0.41224    0.73538    1.000
    Si152    Si       0.02714    0.41692    0.69505    1.000
    N153     N        0.99770    0.42652    0.66379    1.000
    N154     N        0.01294    0.49584    0.71926    1.000
    N155     N        0.04378    0.50789    0.65512    1.000
    N156     N        0.01165    0.36865    0.86127    1.000
    N157     N        0.00680    0.35543    0.78506    1.000
    Si158    Si       0.03087    0.36848    0.82191    1.000
    N159     N        0.01714    0.28258    0.79472    1.000
    Si160    Si       0.03163    0.38707    0.76344    1.000
    Si161    Si       0.01315    0.44751    0.81717    1.000
    N162     N        0.03667    0.47757    0.84143    1.000
    N163     N        0.99963    0.46304    0.77948    1.000
    N164     N        0.04023    0.40968    0.80539    1.000
    Si165    Si       0.01943    0.49966    0.76382    1.000
    N166     N        0.99969    0.28901    0.89926    1.000
    N167     N        0.00298    0.32900    0.95524    1.000
    Si168    Si       0.01685    0.36965    0.96053    1.000
    Si169    Si       0.00325    0.30468    0.98988    1.000
    Si170    Si       0.04396    0.29136    0.89313    1.000
    N171     N        0.04090    0.28287    0.99301    1.000
    Si172    Si       0.04491    0.36822    0.88982    1.000
    N173     N        0.00949    0.44849    0.89780    1.000
    N174     N        0.03894    0.38984    0.92818    1.000
    Si175    Si       0.00730    0.41894    0.99245    1.000
    Si176    Si       0.03049    0.49895    0.87896    1.000
    Si177    Si       0.03649    0.43457    0.92706    1.000
    N178     N        0.02731    0.44780    0.96769    1.000
    N179     N        0.02158    0.55600    0.03612    1.000
    N180     N        0.01611    0.62099    0.06437    1.000
    Si181    Si       0.00233    0.53093    0.06493    1.000
    N182     N        0.01056    0.51092    0.10268    1.000
    N183     N        0.03372    0.70377    0.05190    1.000
    Si184    Si       0.01775    0.66463    0.06792    1.000
    N185     N        0.00195    0.67046    0.10870    1.000
    Si186    Si       0.98932    0.71487    0.04806    1.000
    Si187    Si       0.02729    0.54301    0.12652    1.000
    Si188    Si       0.00592    0.60659    0.15662    1.000
    Si189    Si       0.03351    0.60748    0.23215    1.000
    N190     N        0.03309    0.60468    0.19028    1.000
    N191     N        0.03861    0.61790    0.13086    1.000
    N192     N        0.99539    0.56877    0.14305    1.000
    N193     N        0.04734    0.52660    0.15957    1.000
    Si194    Si       0.04338    0.66382    0.12889    1.000
    N195     N        0.99912    0.63667    0.24072    1.000
    Si196    Si       0.00713    0.72002    0.12261    1.000
    N197     N        0.02322    0.75240    0.21215    1.000
    N198     N        0.01254    0.60504    0.30691    1.000
    N199     N        0.02317    0.60660    0.36660    1.000
    Si200    Si       0.99494    0.57706    0.27542    1.000
    Si201    Si       0.99071    0.62111    0.34147    1.000
    N202     N        0.02509    0.56641    0.24698    1.000
    N203     N        0.02594    0.67760    0.29019    1.000
    N204     N        0.02634    0.72280    0.34460    1.000
    Si205    Si       0.00211    0.69554    0.32068    1.000
    N206     N        0.98448    0.66490    0.34749    1.000
    Si207    Si       0.01471    0.67666    0.24902    1.000
    Si208    Si       0.02303    0.52761    0.42933    1.000
    Si209    Si       0.99934    0.59832    0.46648    1.000
    N210     N        0.03560    0.62111    0.45725    1.000
    N211     N        0.01736    0.53002    0.38691    1.000
    N212     N        0.99905    0.55922    0.45013    1.000
    N213     N        0.99693    0.67278    0.47404    1.000
    Si214    Si       0.00219    0.75642    0.45407    1.000
    Si215    Si       0.02802    0.66489    0.44540    1.000
    N216     N        0.04263    0.73797    0.46266    1.000
    N217     N        0.01798    0.67841    0.40448    1.000
    Si218    Si       0.04617    0.69953    0.37792    1.000
    N219     N        0.03438    0.58464    0.55951    1.000
    Si220    Si       0.03394    0.56533    0.52082    1.000
    N221     N        0.02176    0.52415    0.50692    1.000
    N222     N        0.00428    0.54212    0.61068    1.000
    Si223    Si       0.99797    0.60819    0.55055    1.000
    Si224    Si       0.03718    0.56506    0.59853    1.000
    N225     N        0.99871    0.59324    0.50943    1.000
    Si226    Si       0.00154    0.68157    0.51793    1.000
    N227     N        0.00708    0.74383    0.58224    1.000
    N228     N        0.03275    0.68975    0.60292    1.000
    Si229    Si       0.00070    0.66464    0.58986    1.000
    N230     N        0.00061    0.65079    0.55001    1.000
    N231     N        0.03976    0.70250    0.51851    1.000
    Si232    Si       0.04016    0.74455    0.50438    1.000
    Si233    Si       0.04517    0.72949    0.59568    1.000
    N234     N        0.00988    0.63748    0.62180    1.000
    Si235    Si       0.00478    0.53012    0.65371    1.000
    Si236    Si       0.01614    0.60694    0.65628    1.000
    N237     N        0.00224    0.56775    0.67428    1.000
    N238     N        0.04195    0.63213    0.68275    1.000
    Si239    Si       0.03343    0.73224    0.66989    1.000
    N240     N        0.00605    0.65220    0.73746    1.000
    Si241    Si       0.04309    0.66391    0.63798    1.000
    Si242    Si       0.03559    0.73873    0.74299    1.000
    N243     N        0.03115    0.68954    0.67137    1.000
    N244     N        0.99269    0.72730    0.73806    1.000
    Si245    Si       0.00782    0.65945    0.69519    1.000
    Si246    Si       0.00827    0.56422    0.80270    1.000
    N247     N        0.00919    0.60465    0.78375    1.000
    N248     N        0.99805    0.53561    0.77343    1.000
    N249     N        0.03946    0.69498    0.85081    1.000
    Si250    Si       0.02933    0.67310    0.77054    1.000
    Si251    Si       0.99920    0.68673    0.83689    1.000
    N252     N        0.99959    0.69036    0.79444    1.000
    N253     N        0.03565    0.54384    0.87098    1.000
    N254     N        0.04310    0.51729    0.98541    1.000
    N255     N        0.00685    0.59777    0.88268    1.000
    N256     N        0.02606    0.56444    0.94122    1.000
    Si257    Si       0.02084    0.52111    0.94723    1.000
    Si258    Si       0.03892    0.57611    0.90094    1.000
    Si259    Si       0.99136    0.55426    0.87293    1.000
    Si260    Si       0.99086    0.74894    0.87111    1.000
    N261     N        0.02074    0.73694    0.89824    1.000
    N262     N        0.01369    0.66364    0.91049    1.000
    Si263    Si       0.03893    0.69597    0.89430    1.000
    Si264    Si       0.99598    0.73165    0.97494    1.000
    N265     N        0.02747    0.70128    0.96871    1.000
    Si266    Si       0.01939    0.66061    0.95598    1.000
    N267     N        0.01763    0.86365    0.05312    1.000
    Si268    Si       0.00554    0.82188    0.04476    1.000
    N269     N        0.03799    0.80126    0.02634    1.000
    Si270    Si       0.04032    0.86712    0.09009    1.000
    N271     N        0.00696    0.86742    0.11729    1.000
    Si272    Si       0.03311    0.94005    0.09410    1.000
    N273     N        0.99492    0.92817    0.07739    1.000
    Si274    Si       0.98602    0.89690    0.04844    1.000
    N275     N        0.98896    0.90463    0.00660    1.000
    N276     N        0.01766    0.76824    0.12430    1.000
    Si277    Si       0.01251    0.79069    0.23080    1.000
    Si278    Si       0.00652    0.84026    0.18016    1.000
    N279     N        0.04426    0.82600    0.16909    1.000
    N280     N        0.99084    0.82733    0.21902    1.000
    N281     N        0.00227    0.88527    0.18016    1.000
    N282     N        0.03631    0.94126    0.20425    1.000
    N283     N        0.99773    0.99933    0.17657    1.000
    Si284    Si       0.02658    0.96823    0.23591    1.000
    Si285    Si       0.02799    0.89881    0.21104    1.000
    Si286    Si       0.99739    0.90232    0.14132    1.000
    N287     N        0.02063    0.94107    0.13820    1.000
    Si288    Si       0.01147    0.85958    0.32598    1.000
    N289     N        0.03891    0.78307    0.29997    1.000
    Si290    Si       0.99638    0.79378    0.30103    1.000
    N291     N        0.99526    0.83777    0.29228    1.000
    Si292    Si       0.02675    0.90785    0.28019    1.000
    N293     N        0.01571    0.98134    0.31792    1.000
    N294     N        0.00368    0.90282    0.31723    1.000
    Si295    Si       0.01101    0.97962    0.36251    1.000
    N296     N        0.04098    0.94748    0.27114    1.000
    N297     N        0.00753    0.89040    0.24654    1.000
    N298     N        0.04073    0.85388    0.46908    1.000
    Si299    Si       0.00749    0.85845    0.39962    1.000
    N300     N        0.01178    0.77056    0.41442    1.000
    Si301    Si       0.99566    0.85997    0.46752    1.000
    N302     N        0.04565    0.84058    0.40323    1.000
    N303     N        0.00697    0.77353    0.49541    1.000
    Si304    Si       0.03344    0.96768    0.47452    1.000
    N305     N        0.04752    0.95765    0.37049    1.000
    N306     N        0.00656    0.90034    0.40241    1.000
    N307     N        0.02341    0.94670    0.43758    1.000
    Si308    Si       0.04107    0.92591    0.40176    1.000
    N309     N        0.03672    0.00854    0.45830    1.000
    Si310    Si       0.00215    0.81022    0.52035    1.000
    Si311    Si       0.00837    0.78628    0.59152    1.000
    N312     N        0.04266    0.82642    0.52973    1.000
    N313     N        0.02252    0.86931    0.61814    1.000
    Si314    Si       0.01990    0.00215    0.60130    1.000
    Si315    Si       0.00241    0.99004    0.53978    1.000
    Si316    Si       0.99556    0.91646    0.51460    1.000
    N317     N        0.00182    0.96197    0.50541    1.000
    N318     N        0.03291    0.89920    0.52834    1.000
    N319     N        0.04403    0.92847    0.59863    1.000
    N320     N        0.99149    0.97495    0.58271    1.000
    Si321    Si       0.99869    0.84500    0.64281    1.000
    N322     N        0.00375    0.85696    0.68661    1.000
    N323     N        0.99625    0.80390    0.63072    1.000
    N324     N        0.02932    0.97865    0.71393    1.000
    Si325    Si       0.03430    0.96458    0.67282    1.000
    Si326    Si       0.01971    0.89460    0.69874    1.000
    Si327    Si       0.01349    0.91116    0.62401    1.000
    Si328    Si       0.00788    0.95390    0.74185    1.000
    N329     N        0.01790    0.92410    0.66560    1.000
    N330     N        0.02588    0.99599    0.64366    1.000
    N331     N        0.99454    0.91559    0.72900    1.000
    Si332    Si       0.01055    0.85845    0.79321    1.000
    N333     N        0.00168    0.77460    0.83762    1.000
    N334     N        0.03560    0.82219    0.79687    1.000
    Si335    Si       0.03586    0.78415    0.81265    1.000
    Si336    Si       0.99434    0.87301    0.86447    1.000
    N337     N        0.01864    0.83638    0.86304    1.000
    N338     N        0.02340    0.75490    0.78189    1.000
    N339     N        0.02946    0.95170    0.78320    1.000
    Si340    Si       0.03172    0.91744    0.81005    1.000
    N341     N        0.99626    0.89288    0.82374    1.000
    Si342    Si       0.99742    0.98290    0.79980    1.000
    N343     N        0.04328    0.88691    0.78286    1.000
    N344     N        0.01695    0.77313    0.96237    1.000
    N345     N        0.03557    0.85281    0.97182    1.000
    Si346    Si       0.03590    0.80842    0.98186    1.000
    Si347    Si       0.03841    0.76464    0.92543    1.000
    Si348    Si       0.99644    0.86670    0.98465    1.000
    N349     N        0.03562    0.96273    0.89531    1.000
    Si350    Si       0.99073    0.91041    0.93288    1.000
    Si351    Si       0.04406    0.92277    0.88859    1.000
    N352     N        0.02644    0.99411    0.95321    1.000
    Si353    Si       0.03908    0.00242    0.91178    1.000
    N354     N        0.00383    0.90459    0.89102    1.000
    N355     N        0.02891    0.91837    0.95647    1.000
    Si356    Si       0.04434    0.95885    0.96716    1.000
    N357     N        0.07199    0.10897    0.08459    1.000
    Si358    Si       0.08633    0.10418    0.04306    1.000
    N359     N        0.08155    0.04048    0.11001    1.000
    N360     N        0.06539    0.03086    0.00815    1.000
    N361     N        0.05041    0.09834    0.02063    1.000
    Si362    Si       0.08976    0.08357    0.11590    1.000
    Si363    Si       0.10515    0.03059    0.02002    1.000
    Si364    Si       0.04669    0.02277    0.09189    1.000
    N365     N        0.06296    0.16324    0.01018    1.000
    N366     N        0.09061    0.19947    0.05199    1.000
    Si367    Si       0.08812    0.21297    0.09299    1.000
    Si368    Si       0.05320    0.14762    0.09663    1.000
    Si369    Si       0.10556    0.17168    0.01961    1.000
    N370     N        0.07848    0.17778    0.11597    1.000
    N371     N        0.04962    0.23364    0.09329    1.000
    Si372    Si       0.04889    0.18965    0.04102    1.000
    N373     N        0.10268    0.11182    0.22026    1.000
    N374     N        0.07993    0.09736    0.15763    1.000
    Si375    Si       0.08549    0.07431    0.19381    1.000
    N376     N        0.09474    0.05044    0.23059    1.000
    Si377    Si       0.09758    0.01412    0.14285    1.000
    Si378    Si       0.07880    0.14919    0.21648    1.000
    Si379    Si       0.04776    0.21297    0.24448    1.000
    N380     N        0.05762    0.23419    0.20721    1.000
    Si381    Si       0.05433    0.16816    0.15087    1.000
    N382     N        0.08853    0.16994    0.18033    1.000
    N383     N        0.07645    0.18024    0.24809    1.000
    N384     N        0.07785    0.07208    0.34393    1.000
    Si385    Si       0.06909    0.03093    0.25786    1.000
    N386     N        0.05834    0.06999    0.27810    1.000
    Si387    Si       0.09746    0.09019    0.26222    1.000
    N388     N        0.09948    0.12828    0.28431    1.000
    Si389    Si       0.09304    0.17045    0.28766    1.000
    N390     N        0.05796    0.24035    0.27641    1.000
    N391     N        0.08015    0.14518    0.36080    1.000
    N392     N        0.06276    0.18519    0.31717    1.000
    Si393    Si       0.10005    0.18282    0.34985    1.000
    N394     N        0.08648    0.04341    0.47959    1.000
    Si395    Si       0.07546    0.07045    0.38689    1.000
    N396     N        0.08852    0.03135    0.40260    1.000
    Si397    Si       0.08371    0.12416    0.47779    1.000
    N398     N        0.10558    0.09837    0.40181    1.000
    N399     N        0.05551    0.09651    0.46125    1.000
    Si400    Si       0.10470    0.25541    0.47892    1.000
    Si401    Si       0.06763    0.25659    0.37346    1.000
    Si402    Si       0.04896    0.23587    0.44215    1.000
    N403     N        0.09183    0.22834    0.44888    1.000
    N404     N        0.09073    0.21908    0.37463    1.000
    N405     N        0.07692    0.16344    0.45787    1.000
    N406     N        0.06830    0.07568    0.56253    1.000
    Si407    Si       0.08883    0.07080    0.60080    1.000
    Si408    Si       0.05764    0.11741    0.55150    1.000
    Si409    Si       0.05956    0.03868    0.54091    1.000
    N410     N        0.10115    0.01358    0.54053    1.000
    N411     N        0.08234    0.13248    0.51863    1.000
    N412     N        0.07869    0.14386    0.57951    1.000
    N413     N        0.09041    0.24436    0.51782    1.000
    Si414    Si       0.06267    0.14139    0.62105    1.000
    N415     N        0.09473    0.26047    0.58444    1.000
    N416     N        0.07790    0.03747    0.62654    1.000
    N417     N        0.07583    0.10140    0.63077    1.000
    N418     N        0.08022    0.01916    0.69000    1.000
    Si419    Si       0.07241    0.06632    0.65924    1.000
    N420     N        0.05750    0.11789    0.71282    1.000
    Si421    Si       0.10136    0.11081    0.70821    1.000
    Si422    Si       0.05473    0.01389    0.72270    1.000
    N423     N        0.10555    0.07390    0.68393    1.000
    N424     N        0.07118    0.18406    0.71291    1.000
    N425     N        0.07528    0.17176    0.65002    1.000
    Si426    Si       0.10333    0.17644    0.68376    1.000
    N427     N        0.07077    0.07180    0.79621    1.000
    Si428    Si       0.06812    0.09232    0.83523    1.000
    N429     N        0.09957    0.07002    0.85824    1.000
    N430     N        0.07030    0.13425    0.83381    1.000
    N431     N        0.07854    0.18716    0.78697    1.000
    N432     N        0.07308    0.20085    0.85836    1.000
    Si433    Si       0.06197    0.17500    0.82487    1.000
    Si434    Si       0.05539    0.19138    0.75105    1.000
    Si435    Si       0.08433    0.25537    0.75518    1.000
    Si436    Si       0.05399    0.23694    0.87082    1.000
    Si437    Si       0.09467    0.05419    0.89829    1.000
    N438     N        0.06453    0.07869    0.91332    1.000
    Si439    Si       0.08180    0.11260    0.93771    1.000
    N440     N        0.08039    0.01346    0.90559    1.000
    N441     N        0.09548    0.24947    0.97380    1.000
    N442     N        0.09181    0.20154    0.92462    1.000
    Si443    Si       0.06839    0.23003    0.94623    1.000
    N444     N        0.09986    0.14116    0.90932    1.000
    Si445    Si       0.07421    0.17269    0.89385    1.000
    N446     N        0.05937    0.25621    0.91076    1.000
    N447     N        0.08356    0.29025    0.09433    1.000
    Si448    Si       0.08719    0.31968    0.06262    1.000
    Si449    Si       0.05918    0.37390    0.03286    1.000
    N450     N        0.10315    0.36982    0.02183    1.000
    N451     N        0.10402    0.29603    0.02774    1.000
    N452     N        0.04874    0.33745    0.05284    1.000
    N453     N        0.07196    0.40093    0.06721    1.000
    N454     N        0.08040    0.46666    0.09358    1.000
    Si455    Si       0.08298    0.48279    0.05440    1.000
    Si456    Si       0.05419    0.43000    0.09677    1.000
    N457     N        0.06626    0.35647    0.20789    1.000
    N458     N        0.09049    0.29645    0.18651    1.000
    Si459    Si       0.10364    0.33975    0.18983    1.000
    Si460    Si       0.04979    0.29975    0.17295    1.000
    Si461    Si       0.09289    0.25766    0.20713    1.000
    N462     N        0.10410    0.41397    0.20141    1.000
    Si463    Si       0.09744    0.40436    0.15768    1.000
    N464     N        0.06000    0.41282    0.13697    1.000
    Si465    Si       0.07369    0.39444    0.22551    1.000
    Si466    Si       0.07942    0.36069    0.29976    1.000
    Si467    Si       0.09027    0.27003    0.27175    1.000
    N468     N        0.07221    0.30629    0.25677    1.000
    N469     N        0.04253    0.33405    0.31309    1.000
    N470     N        0.09355    0.38716    0.26556    1.000
    N471     N        0.06765    0.39354    0.32867    1.000
    Si472    Si       0.07753    0.47902    0.28187    1.000
    N473     N        0.09675    0.49193    0.32066    1.000
    Si474    Si       0.10028    0.40916    0.35216    1.000
    N475     N        0.09851    0.28710    0.37557    1.000
    N476     N        0.07826    0.28787    0.46839    1.000
    N477     N        0.05783    0.32951    0.42823    1.000
    Si478    Si       0.09306    0.32724    0.45509    1.000
    N479     N        0.09920    0.34558    0.49495    1.000
    Si480    Si       0.09877    0.43804    0.41736    1.000
    Si481    Si       0.05488    0.42413    0.47678    1.000
    N482     N        0.09538    0.44489    0.37505    1.000
    N483     N        0.06572    0.41651    0.43476    1.000
    N484     N        0.06854    0.36909    0.54789    1.000
    Si485    Si       0.06246    0.33639    0.51957    1.000
    N486     N        0.05893    0.29892    0.53944    1.000
    Si487    Si       0.05243    0.27188    0.57382    1.000
    Si488    Si       0.05129    0.26150    0.51212    1.000
    Si489    Si       0.06487    0.38563    0.58938    1.000
    Si490    Si       0.09380    0.40654    0.53872    1.000
    N491     N        0.08442    0.42308    0.57727    1.000
    Si492    Si       0.08914    0.46562    0.58062    1.000
    N493     N        0.08615    0.43499    0.50706    1.000
    N494     N        0.08144    0.50275    0.50329    1.000
    Si495    Si       0.06099    0.50372    0.61715    1.000
    N496     N        0.05038    0.48612    0.57883    1.000
    Si497    Si       0.10566    0.29304    0.68940    1.000
    N498     N        0.07471    0.36073    0.62334    1.000
    N499     N        0.07770    0.28160    0.72034    1.000
    Si500    Si       0.08123    0.36659    0.70783    1.000
    N501     N        0.09246    0.27782    0.65034    1.000
    Si502    Si       0.04938    0.26862    0.64995    1.000
    N503     N        0.10249    0.33606    0.68524    1.000
    N504     N        0.08375    0.50837    0.71774    1.000
    N505     N        0.05783    0.44774    0.69752    1.000
    Si506    Si       0.05009    0.49098    0.69539    1.000
    N507     N        0.09439    0.47535    0.62165    1.000
    Si508    Si       0.09993    0.43963    0.70823    1.000
    N509     N        0.08682    0.27918    0.79081    1.000
    Si510    Si       0.08895    0.35716    0.78587    1.000
    N511     N        0.06084    0.33927    0.81544    1.000
    Si512    Si       0.05419    0.29462    0.81574    1.000
    N513     N        0.05225    0.27578    0.85266    1.000
    N514     N        0.06651    0.36497    0.74971    1.000
    N515     N        0.05945    0.49419    0.77740    1.000
    Si516    Si       0.07881    0.41607    0.82684    1.000
    Si517    Si       0.07083    0.48808    0.81829    1.000
    N518     N        0.09742    0.45511    0.83021    1.000
    Si519    Si       0.09681    0.49460    0.75665    1.000
    N520     N        0.06944    0.39952    0.86673    1.000
    N521     N        0.10588    0.39232    0.80515    1.000
    Si522    Si       0.09610    0.33291    0.92558    1.000
    N523     N        0.09641    0.32316    0.96823    1.000
    N524     N        0.05782    0.32945    0.90565    1.000
    Si525    Si       0.08315    0.28869    0.98894    1.000
    N526     N        0.04757    0.50095    0.92012    1.000
    Si527    Si       0.05282    0.47468    0.98986    1.000
    N528     N        0.09458    0.47278    0.97428    1.000
    N529     N        0.08004    0.44402    0.91635    1.000
    Si530    Si       0.10134    0.41133    0.89616    1.000
    Si531    Si       0.08588    0.48383    0.93207    1.000
    N532     N        0.08217    0.52630    0.04928    1.000
    N533     N        0.09114    0.60311    0.06709    1.000
    Si534    Si       0.05743    0.54262    0.01779    1.000
    Si535    Si       0.09411    0.56031    0.07589    1.000
    N536     N        0.05724    0.56404    0.10366    1.000
    Si537    Si       0.05134    0.60777    0.08941    1.000
    N538     N        0.07462    0.57787    0.99663    1.000
    Si539    Si       0.07459    0.70443    0.03939    1.000
    N540     N        0.07629    0.73731    0.00994    1.000
    N541     N        0.08729    0.66404    0.02993    1.000
    N542     N        0.06557    0.65621    0.09166    1.000
    Si543    Si       0.10157    0.64596    0.06815    1.000
    N544     N        0.09966    0.72189    0.07158    1.000
    Si545    Si       0.04941    0.53073    0.23645    1.000
    Si546    Si       0.06582    0.61400    0.16374    1.000
    N547     N        0.09517    0.58205    0.16445    1.000
    Si548    Si       0.08770    0.54051    0.16777    1.000
    N549     N        0.08492    0.54078    0.21032    1.000
    N550     N        0.07191    0.62661    0.24418    1.000
    N551     N        0.09202    0.73323    0.18966    1.000
    N552     N        0.07589    0.65543    0.16318    1.000
    Si553    Si       0.08093    0.73060    0.14685    1.000
    Si554    Si       0.06065    0.73400    0.22022    1.000
    N555     N        0.04997    0.69163    0.22568    1.000
    Si556    Si       0.08329    0.66678    0.23397    1.000
    N557     N        0.04553    0.70687    0.13781    1.000
    N558     N        0.07343    0.52001    0.27049    1.000
    Si559    Si       0.09574    0.54254    0.30636    1.000
    N560     N        0.06164    0.55707    0.32960    1.000
    Si561    Si       0.09952    0.61471    0.27516    1.000
    N562     N        0.07614    0.62715    0.30929    1.000
    Si563    Si       0.05346    0.59863    0.33643    1.000
    N564     N        0.09212    0.60498    0.36592    1.000
    Si565    Si       0.04599    0.52470    0.35569    1.000
    N566     N        0.06330    0.67086    0.35189    1.000
    Si567    Si       0.06517    0.66808    0.30737    1.000
    N568     N        0.08887    0.73944    0.32219    1.000
    N569     N        0.09230    0.68483    0.27752    1.000
    Si570    Si       0.09820    0.64729    0.35852    1.000
    N571     N        0.08299    0.75108    0.25565    1.000
    Si572    Si       0.10487    0.72612    0.28317    1.000
    Si573    Si       0.05027    0.75773    0.33362    1.000
    Si574    Si       0.09462    0.52119    0.41775    1.000
    Si575    Si       0.07395    0.61318    0.47912    1.000
    N576     N        0.06259    0.53285    0.44276    1.000
    Si577    Si       0.08391    0.53807    0.47886    1.000
    N578     N        0.10423    0.61466    0.44786    1.000
    N579     N        0.08008    0.51204    0.37912    1.000
    N580     N        0.06787    0.57435    0.49737    1.000
    Si581    Si       0.10342    0.65634    0.43640    1.000
    N582     N        0.07090    0.67831    0.45563    1.000
    N583     N        0.06591    0.72861    0.40089    1.000
    Si584    Si       0.07552    0.71903    0.44190    1.000
    N585     N        0.07561    0.54326    0.60149    1.000
    N586     N        0.08574    0.63932    0.51161    1.000
    N587     N        0.08381    0.71975    0.57897    1.000
    Si588    Si       0.10264    0.73228    0.54352    1.000
    Si589    Si       0.07213    0.67841    0.50308    1.000
    Si590    Si       0.10595    0.68575    0.59482    1.000
    N591     N        0.10694    0.70285    0.51270    1.000
    N592     N        0.04776    0.58926    0.63249    1.000
    N593     N        0.07766    0.56933    0.68883    1.000
    Si594    Si       0.07287    0.60942    0.70068    1.000
    Si595    Si       0.08418    0.56352    0.64525    1.000
    N596     N        0.07249    0.60635    0.74479    1.000
    Si597    Si       0.09781    0.75630    0.70298    1.000
    N598     N        0.05513    0.74886    0.70394    1.000
    N599     N        0.08439    0.65845    0.62502    1.000
    N600     N        0.05431    0.74962    0.63596    1.000
    Si601    Si       0.07172    0.55608    0.84351    1.000
    N602     N        0.09438    0.52081    0.83230    1.000
    Si603    Si       0.05341    0.60758    0.78335    1.000
    N604     N        0.10082    0.58284    0.85875    1.000
    N605     N        0.05103    0.56941    0.80768    1.000
    N606     N        0.08949    0.72356    0.81163    1.000
    Si607    Si       0.08548    0.70063    0.85307    1.000
    Si608    Si       0.09510    0.71284    0.76991    1.000
    N609     N        0.05733    0.64977    0.79272    1.000
    N610     N        0.05637    0.70200    0.75355    1.000
    Si611    Si       0.09967    0.65184    0.80311    1.000
    N612     N        0.07470    0.59176    0.92142    1.000
    Si613    Si       0.05583    0.59243    0.95995    1.000
    N614     N        0.10282    0.73841    0.86945    1.000
    N615     N        0.09722    0.68270    0.96346    1.000
    N616     N        0.05140    0.63440    0.96992    1.000
    Si617    Si       0.08767    0.64871    0.98834    1.000
    Si618    Si       0.06944    0.71428    0.97189    1.000
    N619     N        0.07976    0.68358    0.89652    1.000
    N620     N        0.07430    0.73902    0.93687    1.000
    Si621    Si       0.07490    0.77929    0.01982    1.000
    N622     N        0.06043    0.83009    0.10093    1.000
    Si623    Si       0.10027    0.82348    0.08045    1.000
    N624     N        0.10020    0.78842    0.05224    1.000
    N625     N        0.06126    0.90534    0.09611    1.000
    Si626    Si       0.07508    0.96782    0.04610    1.000
    N627     N        0.06394    0.95643    0.00578    1.000
    Si628    Si       0.10385    0.90323    0.08389    1.000
    N629     N        0.04814    0.97795    0.07945    1.000
    N630     N        0.10533    0.93437    0.05452    1.000
    N631     N        0.10544    0.99760    0.04758    1.000
    Si632    Si       0.07124    0.83609    0.20224    1.000
    N633     N        0.08409    0.77412    0.13901    1.000
    N634     N        0.06807    0.87917    0.20681    1.000
    N635     N        0.05262    0.80804    0.23301    1.000
    Si636    Si       0.04769    0.79843    0.13439    1.000
    N637     N        0.06309    0.99482    0.16277    1.000
    N638     N        0.09451    0.93449    0.16865    1.000
    Si639    Si       0.05620    0.95233    0.16613    1.000
    Si640    Si       0.09951    0.90762    0.20474    1.000
    Si641    Si       0.07157    0.79138    0.26974    1.000
    Si642    Si       0.08479    0.85636    0.30693    1.000
    N643     N        0.09696    0.82256    0.28408    1.000
    N644     N        0.05944    0.78646    0.36600    1.000
    N645     N        0.05213    0.85156    0.33668    1.000
    Si646    Si       0.06875    0.82835    0.36882    1.000
    Si647    Si       0.09821    0.91436    0.28531    1.000
    N648     N        0.06427    0.88737    0.28622    1.000
    N649     N        0.09337    0.94622    0.31842    1.000
    Si650    Si       0.08983    0.94307    0.36171    1.000
    Si651    Si       0.05657    0.97045    0.30399    1.000
    N652     N        0.08176    0.00236    0.28927    1.000
    N653     N        0.10470    0.86064    0.44234    1.000
    Si654    Si       0.05416    0.76945    0.40542    1.000
    Si655    Si       0.06859    0.83588    0.44119    1.000
    N656     N        0.07825    0.79293    0.43308    1.000
    N657     N        0.07195    0.97183    0.49273    1.000
    N658     N        0.08114    0.90733    0.39073    1.000
    Si659    Si       0.08242    0.00298    0.46462    1.000
    Si660    Si       0.07204    0.80057    0.54824    1.000
    N661     N        0.09743    0.85915    0.51176    1.000
    Si662    Si       0.05375    0.86191    0.50906    1.000
    N663     N        0.07985    0.87757    0.57751    1.000
    N664     N        0.07366    0.76245    0.52556    1.000
    N665     N        0.05252    0.78964    0.58527    1.000
    Si666    Si       0.06739    0.86424    0.61629    1.000
    Si667    Si       0.06110    0.91256    0.56056    1.000
    N668     N        0.09498    0.94046    0.55171    1.000
    Si669    Si       0.10083    0.97215    0.52503    1.000
    Si670    Si       0.07708    0.78521    0.62175    1.000
    N671     N        0.08091    0.82686    0.63308    1.000
    N672     N        0.10153    0.79792    0.69311    1.000
    N673     N        0.06153    0.89704    0.71390    1.000
    Si674    Si       0.09570    0.89707    0.68802    1.000
    Si675    Si       0.07765    0.92994    0.62622    1.000
    Si676    Si       0.07895    0.00195    0.64918    1.000
    N677     N        0.07508    0.95875    0.65628    1.000
    N678     N        0.07947    0.89232    0.64709    1.000
    N679     N        0.06427    0.78778    0.84548    1.000
    Si680    Si       0.07904    0.82543    0.78925    1.000
    N681     N        0.09434    0.78355    0.79050    1.000
    Si682    Si       0.09847    0.76463    0.83245    1.000
    N683     N        0.08055    0.84162    0.75047    1.000
    Si684    Si       0.07304    0.88501    0.75272    1.000
    N685     N        0.09435    0.97859    0.81097    1.000
    Si686    Si       0.09344    0.94652    0.83927    1.000
    Si687    Si       0.05790    0.98556    0.79070    1.000
    N688     N        0.05662    0.92255    0.84568    1.000
    N689     N        0.07870    0.00042    0.75646    1.000
    N690     N        0.10021    0.83963    0.87465    1.000
    Si691    Si       0.06059    0.82192    0.87276    1.000
    N692     N        0.06002    0.79848    0.91067    1.000
    Si693    Si       0.09375    0.80825    0.93733    1.000
    N694     N        0.07995    0.79901    0.97898    1.000
    Si695    Si       0.10410    0.98006    0.91444    1.000
    N696     N        0.08767    0.96160    0.94980    1.000
    Si697    Si       0.05944    0.88774    0.95310    1.000
    N698     N        0.06916    0.89333    0.90997    1.000
    Si699    Si       0.10021    0.93989    0.98500    1.000
    N700     N        0.09199    0.89865    0.97739    1.000
    Si701    Si       0.14521    0.07196    0.07253    1.000
    N702     N        0.13301    0.08692    0.11229    1.000
    N703     N        0.15729    0.03129    0.08161    1.000
    N704     N        0.11154    0.06764    0.04452    1.000
    Si705    Si       0.16356    0.13254    0.03963    1.000
    N706     N        0.11956    0.13400    0.03721    1.000
    N707     N        0.12249    0.23482    0.10674    1.000
    N708     N        0.16063    0.25302    0.01036    1.000
    Si709    Si       0.16158    0.22262    0.12079    1.000
    Si710    Si       0.12956    0.03160    0.21151    1.000
    N711     N        0.11414    0.04211    0.17088    1.000
    N712     N        0.15862    0.11514    0.17491    1.000
    Si713    Si       0.14339    0.12846    0.21457    1.000
    Si714    Si       0.12454    0.19309    0.17520    1.000
    N715     N        0.15522    0.18493    0.14423    1.000
    N716     N        0.11746    0.23758    0.17735    1.000
    N717     N        0.14651    0.17332    0.20822    1.000
    Si718    Si       0.16459    0.26189    0.24688    1.000
    N719     N        0.12595    0.06452    0.28507    1.000
    N720     N        0.14172    0.08783    0.34478    1.000
    Si721    Si       0.11662    0.05756    0.32873    1.000
    N722     N        0.12915    0.01429    0.33477    1.000
    Si723    Si       0.11676    0.12036    0.36496    1.000
    Si724    Si       0.16199    0.07691    0.26233    1.000
    N725     N        0.12642    0.19002    0.31152    1.000
    N726     N        0.14130    0.15622    0.36309    1.000
    Si727    Si       0.13861    0.23273    0.31515    1.000
    N728     N        0.15351    0.23209    0.35778    1.000
    Si729    Si       0.16215    0.16888    0.32665    1.000
    Si730    Si       0.12616    0.05974    0.47904    1.000
    N731     N        0.14972    0.06062    0.44375    1.000
    N732     N        0.12357    0.10628    0.47461    1.000
    Si733    Si       0.13489    0.09982    0.43224    1.000
    N734     N        0.16103    0.01390    0.39591    1.000
    Si735    Si       0.12939    0.23048    0.39498    1.000
    Si736    Si       0.10971    0.18981    0.45122    1.000
    Si737    Si       0.16449    0.16557    0.40158    1.000
    N738     N        0.13424    0.19347    0.41496    1.000
    N739     N        0.14417    0.18555    0.47838    1.000
    N740     N        0.12819    0.06803    0.58542    1.000
    N741     N        0.14304    0.06403    0.51740    1.000
    Si742    Si       0.13331    0.03892    0.55239    1.000
    Si743    Si       0.15476    0.10023    0.58339    1.000
    N744     N        0.14388    0.12495    0.54827    1.000
    Si745    Si       0.15352    0.10561    0.50948    1.000
    N746     N        0.15851    0.12316    0.61888    1.000
    N747     N        0.16934    0.01473    0.55975    1.000
    Si748    Si       0.11161    0.23619    0.55367    1.000
    N749     N        0.12085    0.19428    0.54907    1.000
    N750     N        0.15546    0.24802    0.55733    1.000
    Si751    Si       0.11044    0.15208    0.54984    1.000
    Si752    Si       0.16619    0.20470    0.55276    1.000
    Si753    Si       0.12236    0.03246    0.68305    1.000
    N754     N        0.16077    0.03787    0.70058    1.000
    Si755    Si       0.16090    0.13032    0.66233    1.000
    N756     N        0.11698    0.10369    0.74820    1.000
    N757     N        0.12980    0.20984    0.67568    1.000
    N758     N        0.12500    0.13917    0.68653    1.000
    Si759    Si       0.15673    0.24300    0.66650    1.000
    N760     N        0.15561    0.25236    0.62373    1.000
    N761     N        0.13614    0.09907    0.80678    1.000
    Si762    Si       0.14056    0.08411    0.84950    1.000
    N763     N        0.13077    0.03614    0.78242    1.000
    Si764    Si       0.14857    0.12186    0.77215    1.000
    Si765    Si       0.11051    0.07320    0.78090    1.000
    Si766    Si       0.12062    0.19574    0.78024    1.000
    N767     N        0.13316    0.20276    0.81969    1.000
    N768     N        0.14978    0.16428    0.76973    1.000
    Si769    Si       0.15043    0.21543    0.85415    1.000
    N770     N        0.12272    0.23250    0.75677    1.000
    Si771    Si       0.16066    0.25305    0.76335    1.000
    N772     N        0.10888    0.09364    0.96545    1.000
    N773     N        0.15747    0.11415    0.87567    1.000
    Si774    Si       0.13701    0.06249    0.95865    1.000
    N775     N        0.13072    0.05528    0.91841    1.000
    N776     N        0.12766    0.02651    0.98501    1.000
    N777     N        0.16359    0.14287    0.93845    1.000
    N778     N        0.13407    0.19041    0.99295    1.000
    N779     N        0.13411    0.24780    0.88074    1.000
    N780     N        0.15978    0.22951    0.94275    1.000
    Si781    Si       0.12958    0.21853    0.91267    1.000
    Si782    Si       0.14204    0.14598    0.90059    1.000
    Si783    Si       0.13549    0.23200    0.97905    1.000
    N784     N        0.15017    0.18691    0.88792    1.000
    Si785    Si       0.16694    0.16681    0.97576    1.000
    Si786    Si       0.12523    0.27784    0.10067    1.000
    Si787    Si       0.14685    0.28716    0.03131    1.000
    N788     N        0.15725    0.28505    0.07237    1.000
    N789     N        0.11715    0.34904    0.08166    1.000
    N790     N        0.16061    0.32502    0.01500    1.000
    Si791    Si       0.13635    0.34483    0.12180    1.000
    Si792    Si       0.11466    0.38692    0.06118    1.000
    N793     N        0.14755    0.48151    0.10110    1.000
    N794     N        0.14961    0.41077    0.07314    1.000
    Si795    Si       0.15058    0.45444    0.06690    1.000
    N796     N        0.12233    0.47097    0.03920    1.000
    Si797    Si       0.13164    0.46928    0.99643    1.000
    N798     N        0.14554    0.42799    0.99333    1.000
    N799     N        0.11249    0.36241    0.15463    1.000
    N800     N        0.13347    0.34852    0.21775    1.000
    N801     N        0.13945    0.30354    0.13345    1.000
    Si802    Si       0.14115    0.27247    0.16497    1.000
    N803     N        0.12013    0.26160    0.24045    1.000
    Si804    Si       0.15974    0.38581    0.21782    1.000
    Si805    Si       0.11011    0.47425    0.12352    1.000
    N806     N        0.15145    0.47934    0.20193    1.000
    Si807    Si       0.13542    0.44246    0.18742    1.000
    N808     N        0.11810    0.44091    0.14726    1.000
    Si809    Si       0.14484    0.48545    0.24484    1.000
    Si810    Si       0.14569    0.35195    0.34758    1.000
    N811     N        0.15395    0.31154    0.36313    1.000
    N812     N        0.11430    0.33947    0.32046    1.000
    N813     N        0.11228    0.26722    0.31018    1.000
    Si814    Si       0.11523    0.30021    0.33833    1.000
    N815     N        0.11185    0.46024    0.26069    1.000
    Si816    Si       0.12234    0.41944    0.27524    1.000
    N817     N        0.13049    0.41927    0.31844    1.000
    N818     N        0.15239    0.49654    0.36417    1.000
    Si819    Si       0.10856    0.48425    0.36168    1.000
    N820     N        0.15932    0.41157    0.25264    1.000
    N821     N        0.12875    0.38249    0.37431    1.000
    Si822    Si       0.13267    0.30012    0.39977    1.000
    N823     N        0.13013    0.32796    0.43321    1.000
    N824     N        0.14328    0.27018    0.48835    1.000
    N825     N        0.15046    0.26321    0.41745    1.000
    Si826    Si       0.16708    0.34435    0.44773    1.000
    N827     N        0.13695    0.42384    0.43316    1.000
    N828     N        0.10873    0.47925    0.43139    1.000
    N829     N        0.14725    0.48178    0.48665    1.000
    Si830    Si       0.15662    0.40155    0.40316    1.000
    Si831    Si       0.14769    0.46492    0.44797    1.000
    Si832    Si       0.13685    0.35389    0.51668    1.000
    N833     N        0.14632    0.31997    0.54088    1.000
    N834     N        0.13019    0.31956    0.61303    1.000
    Si835    Si       0.15863    0.27859    0.52652    1.000
    Si836    Si       0.15930    0.32842    0.58125    1.000
    Si837    Si       0.11947    0.27684    0.61712    1.000
    N838     N        0.13369    0.39109    0.53820    1.000
    N839     N        0.11946    0.48006    0.55400    1.000
    Si840    Si       0.11131    0.47200    0.51137    1.000
    N841     N        0.16215    0.42434    0.59931    1.000
    Si842    Si       0.16731    0.40391    0.56190    1.000
    Si843    Si       0.15360    0.50692    0.55960    1.000
    N844     N        0.14557    0.37205    0.64994    1.000
    N845     N        0.14698    0.27737    0.69318    1.000
    Si846    Si       0.14889    0.37672    0.69297    1.000
    Si847    Si       0.11101    0.34719    0.64185    1.000
    N848     N        0.16548    0.34263    0.71631    1.000
    Si849    Si       0.16234    0.47339    0.70592    1.000
    N850     N        0.11364    0.39738    0.70757    1.000
    N851     N        0.16138    0.49320    0.62361    1.000
    Si852    Si       0.12496    0.48856    0.64775    1.000
    N853     N        0.12941    0.46045    0.68237    1.000
    N854     N        0.12640    0.33297    0.77905    1.000
    Si855    Si       0.12252    0.29916    0.80574    1.000
    N856     N        0.11968    0.30694    0.84697    1.000
    N857     N        0.15608    0.27154    0.80320    1.000
    Si858    Si       0.16351    0.34810    0.75950    1.000
    Si859    Si       0.14803    0.39671    0.80321    1.000
    Si860    Si       0.14452    0.45890    0.77364    1.000
    Si861    Si       0.13881    0.45501    0.84675    1.000
    N862     N        0.15564    0.43934    0.81113    1.000
    N863     N        0.15725    0.49368    0.85198    1.000
    N864     N        0.13267    0.50294    0.77991    1.000
    N865     N        0.16190    0.39028    0.76318    1.000
    N866     N        0.10964    0.45273    0.74871    1.000
    N867     N        0.10798    0.37233    0.91146    1.000
    Si868    Si       0.14192    0.29140    0.87868    1.000
    N869     N        0.14749    0.36809    0.96315    1.000
    N870     N        0.13114    0.31093    0.91393    1.000
    Si871    Si       0.15762    0.34185    0.92934    1.000
    Si872    Si       0.12678    0.34719    0.99365    1.000
    N873     N        0.13938    0.42405    0.87772    1.000
    N874     N        0.11632    0.50702    0.91442    1.000
    N875     N        0.13247    0.54970    0.09267    1.000
    N876     N        0.14302    0.57357    0.03489    1.000
    Si877    Si       0.11697    0.58245    0.00120    1.000
    N878     N        0.13615    0.66261    0.08887    1.000
    Si879    Si       0.12967    0.70551    0.09925    1.000
    N880     N        0.15683    0.73558    0.08469    1.000
    Si881    Si       0.12775    0.75393    0.05707    1.000
    Si882    Si       0.16497    0.63775    0.11314    1.000
    N883     N        0.11163    0.51283    0.14614    1.000
    Si884    Si       0.14873    0.52474    0.12562    1.000
    N885     N        0.15755    0.56294    0.15238    1.000
    Si886    Si       0.11398    0.55707    0.23528    1.000
    Si887    Si       0.13621    0.59368    0.17211    1.000
    N888     N        0.14084    0.58815    0.21436    1.000
    N889     N        0.13849    0.63110    0.14974    1.000
    Si890    Si       0.11533    0.66691    0.16451    1.000
    N891     N        0.12109    0.70565    0.14235    1.000
    N892     N        0.16220    0.70964    0.20331    1.000
    Si893    Si       0.13560    0.73106    0.17903    1.000
    Si894    Si       0.15605    0.67527    0.23157    1.000
    N895     N        0.11908    0.66524    0.21226    1.000
    N896     N        0.13170    0.55235    0.33355    1.000
    Si897    Si       0.15468    0.55441    0.28513    1.000
    Si898    Si       0.12499    0.57757    0.36822    1.000
    N899     N        0.14232    0.52797    0.25050    1.000
    N900     N        0.11069    0.57279    0.27608    1.000
    N901     N        0.16073    0.60289    0.37331    1.000
    N902     N        0.13848    0.63324    0.26923    1.000
    N903     N        0.13208    0.66563    0.33543    1.000
    N904     N        0.14259    0.74680    0.29488    1.000
    Si905    Si       0.15541    0.65801    0.30177    1.000
    Si906    Si       0.12758    0.75023    0.33834    1.000
    N907     N        0.14833    0.72767    0.36781    1.000
    Si908    Si       0.16080    0.52552    0.48514    1.000
    N909     N        0.12645    0.54820    0.46953    1.000
    Si910    Si       0.13323    0.58287    0.44056    1.000
    N911     N        0.12315    0.55595    0.40798    1.000
    N912     N        0.11276    0.73748    0.45250    1.000
    Si913    Si       0.14289    0.68559    0.37422    1.000
    N914     N        0.13821    0.67298    0.45817    1.000
    N915     N        0.10980    0.66708    0.39607    1.000
    Si916    Si       0.13354    0.71063    0.48002    1.000
    N917     N        0.14816    0.54370    0.58456    1.000
    N918     N        0.12131    0.58913    0.55212    1.000
    Si919    Si       0.11067    0.56732    0.58702    1.000
    Si920    Si       0.16252    0.57057    0.55107    1.000
    N921     N        0.16546    0.53484    0.52635    1.000
    Si922    Si       0.12108    0.63103    0.53472    1.000
    N923     N        0.15974    0.63238    0.50952    1.000
    N924     N        0.13936    0.70757    0.61476    1.000
    N925     N        0.12352    0.65613    0.56865    1.000
    N926     N        0.13939    0.75065    0.55405    1.000
    N927     N        0.11316    0.52935    0.65807    1.000
    N928     N        0.15508    0.51567    0.71484    1.000
    N929     N        0.10834    0.62819    0.68319    1.000
    N930     N        0.11380    0.58942    0.62525    1.000
    Si931    Si       0.10899    0.54074    0.70243    1.000
    Si932    Si       0.11144    0.62903    0.63945    1.000
    N933     N        0.11874    0.55823    0.74338    1.000
    N934     N        0.14712    0.62572    0.74672    1.000
    Si935    Si       0.14718    0.74494    0.63811    1.000
    N936     N        0.11069    0.74240    0.74247    1.000
    N937     N        0.12770    0.73690    0.67602    1.000
    Si938    Si       0.15091    0.63955    0.68508    1.000
    N939     N        0.15237    0.64802    0.64259    1.000
    N940     N        0.15127    0.67696    0.70882    1.000
    Si941    Si       0.16066    0.71519    0.69480    1.000
    Si942    Si       0.13091    0.58938    0.82920    1.000
    Si943    Si       0.13608    0.51748    0.82129    1.000
    N944     N        0.15649    0.55656    0.81761    1.000
    Si945    Si       0.11429    0.59976    0.75747    1.000
    Si946    Si       0.15438    0.53747    0.75489    1.000
    N947     N        0.16221    0.61672    0.84219    1.000
    N948     N        0.10902    0.60967    0.79861    1.000
    N949     N        0.11903    0.67722    0.77371    1.000
    N950     N        0.11639    0.66769    0.84129    1.000
    Si951    Si       0.14846    0.65092    0.86607    1.000
    Si952    Si       0.15387    0.66701    0.75052    1.000
    N953     N        0.13149    0.54951    0.97342    1.000
    N954     N        0.12425    0.62279    0.98396    1.000
    Si955    Si       0.13732    0.54076    0.92995    1.000
    N956     N        0.14662    0.57635    0.90849    1.000
    Si957    Si       0.10911    0.59963    0.89761    1.000
    Si958    Si       0.10971    0.74216    0.91204    1.000
    Si959    Si       0.11198    0.67558    0.92338    1.000
    N960     N        0.13858    0.71118    0.91770    1.000
    N961     N        0.12738    0.63822    0.90248    1.000
    Si962    Si       0.14664    0.86218    0.04194    1.000
    N963     N        0.13919    0.84503    0.00294    1.000
    N964     N        0.12942    0.81662    0.11263    1.000
    Si965    Si       0.15638    0.80455    0.01338    1.000
    N966     N        0.10984    0.86313    0.06559    1.000
    N967     N        0.15668    0.76081    0.02371    1.000
    Si968    Si       0.14609    0.94204    0.03836    1.000
    Si969    Si       0.13330    0.99543    0.08138    1.000
    N970     N        0.13721    0.91105    0.11337    1.000
    N971     N        0.16199    0.90209    0.03125    1.000
    N972     N        0.13885    0.95546    0.99782    1.000
    N973     N        0.16421    0.96603    0.06844    1.000
    N974     N        0.11999    0.98426    0.12105    1.000
    N975     N        0.15479    0.84487    0.23839    1.000
    N976     N        0.10940    0.82604    0.18464    1.000
    N977     N        0.14778    0.76966    0.16598    1.000
    Si978    Si       0.14601    0.84904    0.19530    1.000
    Si979    Si       0.11905    0.79654    0.14887    1.000
    Si980    Si       0.14330    0.95620    0.24346    1.000
    N981     N        0.13258    0.98976    0.21984    1.000
    N982     N        0.13888    0.89044    0.19283    1.000
    Si983    Si       0.12759    0.94521    0.14025    1.000
    N984     N        0.16284    0.95052    0.16294    1.000
    Si985    Si       0.13732    0.84206    0.27819    1.000
    N986     N        0.14381    0.78927    0.34256    1.000
    N987     N        0.12307    0.87895    0.29970    1.000
    N988     N        0.15232    0.96979    0.28484    1.000
    Si989    Si       0.11865    0.98498    0.30554    1.000
    N990     N        0.10929    0.92794    0.24397    1.000
    N991     N        0.10886    0.83995    0.37776    1.000
    Si992    Si       0.14288    0.81390    0.37883    1.000
    N993     N        0.12816    0.80296    0.47749    1.000
    Si994    Si       0.12509    0.84803    0.47991    1.000
    N995     N        0.14490    0.78322    0.40743    1.000
    Si996    Si       0.11899    0.77950    0.44283    1.000
    Si997    Si       0.10934    0.87655    0.40017    1.000
    Si998    Si       0.12082    0.00154    0.40414    1.000
    N999     N        0.12034    0.99307    0.44655    1.000
    Si1000   Si       0.15146    0.97224    0.46666    1.000
    N1001    N        0.14882    0.89998    0.38993    1.000
    Si1002   Si       0.15529    0.94149    0.39877    1.000
    N1003    N        0.11826    0.96303    0.38536    1.000
    Si1004   Si       0.13699    0.78781    0.57845    1.000
    Si1005   Si       0.11132    0.86125    0.55324    1.000
    N1006    N        0.12034    0.77584    0.61685    1.000
    N1007    N        0.11031    0.81754    0.55922    1.000
    N1008    N        0.14433    0.88890    0.55577    1.000
    Si1009   Si       0.12848    0.92373    0.57447    1.000
    N1010    N        0.13958    0.97064    0.50899    1.000
    N1011    N        0.11824    0.93686    0.61433    1.000
    N1012    N        0.16504    0.94808    0.57200    1.000
    N1013    N        0.11836    0.86072    0.69573    1.000
    N1014    N        0.15331    0.83133    0.65447    1.000
    Si1015   Si       0.11080    0.82770    0.72408    1.000
    Si1016   Si       0.11118    0.82944    0.66302    1.000
    N1017    N        0.14187    0.80653    0.74650    1.000
    N1018    N        0.12382    0.99960    0.65355    1.000
    Si1019   Si       0.12541    0.95580    0.65656    1.000
    N1020    N        0.12185    0.93180    0.69265    1.000
    Si1021   Si       0.13373    0.93261    0.73509    1.000
    Si1022   Si       0.12946    0.82877    0.84335    1.000
    N1023    N        0.13675    0.78565    0.83658    1.000
    Si1024   Si       0.13007    0.77239    0.76809    1.000
    N1025    N        0.11071    0.84799    0.81105    1.000
    Si1026   Si       0.12699    0.88898    0.79927    1.000
    N1027    N        0.12629    0.91950    0.82994    1.000
    Si1028   Si       0.11742    0.99648    0.77700    1.000
    N1029    N        0.14305    0.96722    0.75917    1.000
    N1030    N        0.11195    0.90481    0.76225    1.000
    Si1031   Si       0.14259    0.93239    0.86973    1.000
    Si1032   Si       0.12604    0.87167    0.97045    1.000
    N1033    N        0.12780    0.78272    0.92800    1.000
    N1034    N        0.10855    0.84942    0.94029    1.000
    Si1035   Si       0.10717    0.87181    0.90248    1.000
    N1036    N        0.10803    0.95544    0.87929    1.000
    N1037    N        0.14476    0.98491    0.93203    1.000
    N1038    N        0.16153    0.89607    0.95867    1.000
    Si1039   Si       0.14916    0.99052    0.97515    1.000
    N1040    N        0.14291    0.89626    0.89417    1.000
    N1041    N        0.17950    0.09779    0.06156    1.000
    Si1042   Si       0.19432    0.02980    0.09956    1.000
    N1043    N        0.17917    0.13439    0.00043    1.000
    Si1044   Si       0.22035    0.08094    0.06144    1.000
    N1045    N        0.22576    0.03859    0.07234    1.000
    Si1046   Si       0.21135    0.14248    0.09241    1.000
    Si1047   Si       0.20362    0.24529    0.01104    1.000
    N1048    N        0.17992    0.16027    0.06722    1.000
    Si1049   Si       0.20445    0.19720    0.06390    1.000
    N1050    N        0.18996    0.22872    0.08920    1.000
    N1051    N        0.21469    0.20460    0.02175    1.000
    N1052    N        0.19376    0.06099    0.12875    1.000
    Si1053   Si       0.20200    0.02862    0.22662    1.000
    N1054    N        0.19938    0.01968    0.18514    1.000
    N1055    N        0.19649    0.12746    0.12910    1.000
    Si1056   Si       0.16758    0.09502    0.13694    1.000
    Si1057   Si       0.22267    0.04588    0.15915    1.000
    N1058    N        0.17032    0.11624    0.24612    1.000
    N1059    N        0.16429    0.04768    0.23150    1.000
    Si1060   Si       0.18610    0.19067    0.22161    1.000
    N1061    N        0.18949    0.23363    0.22059    1.000
    N1062    N        0.20799    0.16712    0.19188    1.000
    Si1063   Si       0.17839    0.15228    0.16255    1.000
    N1064    N        0.17585    0.24780    0.15237    1.000
    Si1065   Si       0.19987    0.25818    0.18642    1.000
    N1066    N        0.19305    0.07264    0.28958    1.000
    Si1067   Si       0.18308    0.09184    0.32721    1.000
    N1068    N        0.20883    0.07304    0.35536    1.000
    N1069    N        0.18247    0.13333    0.31217    1.000
    Si1070   Si       0.19963    0.13675    0.27193    1.000
    N1071    N        0.19472    0.17963    0.26189    1.000
    Si1072   Si       0.20400    0.21373    0.28734    1.000
    N1073    N        0.19524    0.19736    0.32708    1.000
    Si1074   Si       0.19531    0.21982    0.36322    1.000
    N1075    N        0.17054    0.23867    0.28443    1.000
    N1076    N        0.21473    0.25942    0.36618    1.000
    Si1077   Si       0.17793    0.03226    0.43104    1.000
    N1078    N        0.21753    0.04612    0.42140    1.000
    N1079    N        0.19369    0.10935    0.49079    1.000
    Si1080   Si       0.20081    0.12462    0.44938    1.000
    N1081    N        0.16529    0.12787    0.42440    1.000
    N1082    N        0.19922    0.19190    0.39659    1.000
    N1083    N        0.19491    0.23512    0.46132    1.000
    Si1084   Si       0.18553    0.19624    0.47862    1.000
    N1085    N        0.20938    0.16758    0.45570    1.000
    N1086    N        0.19401    0.08260    0.57604    1.000
    Si1087   Si       0.20157    0.04160    0.56377    1.000
    N1088    N        0.21625    0.04636    0.52294    1.000
    Si1089   Si       0.21077    0.00951    0.49846    1.000
    N1090    N        0.17407    0.18226    0.58867    1.000
    N1091    N        0.19362    0.20245    0.51965    1.000
    Si1092   Si       0.18972    0.15444    0.61361    1.000
    Si1093   Si       0.22039    0.23722    0.52707    1.000
    N1094    N        0.21749    0.23283    0.57041    1.000
    Si1095   Si       0.19526    0.06070    0.69235    1.000
    Si1096   Si       0.20464    0.12452    0.72183    1.000
    N1097    N        0.21487    0.04565    0.65762    1.000
    N1098    N        0.18790    0.10348    0.68723    1.000
    Si1099   Si       0.20615    0.19033    0.68476    1.000
    N1100    N        0.19401    0.16810    0.72110    1.000
    N1101    N        0.19750    0.23094    0.67536    1.000
    N1102    N        0.18829    0.16401    0.65536    1.000
    N1103    N        0.20325    0.05016    0.78922    1.000
    N1104    N        0.20628    0.11614    0.82768    1.000
    N1105    N        0.19000    0.11295    0.76017    1.000
    Si1106   Si       0.21274    0.09380    0.79262    1.000
    N1107    N        0.16622    0.05003    0.84699    1.000
    Si1108   Si       0.16616    0.03448    0.80635    1.000
    Si1109   Si       0.20119    0.11291    0.87013    1.000
    N1110    N        0.19066    0.23002    0.84610    1.000
    Si1111   Si       0.18901    0.17884    0.76317    1.000
    N1112    N        0.19168    0.22292    0.76379    1.000
    Si1113   Si       0.20399    0.03877    0.87110    1.000
    N1114    N        0.17967    0.06850    0.96648    1.000
    N1115    N        0.19795    0.02124    0.91055    1.000
    Si1116   Si       0.20346    0.03424    0.95091    1.000
    Si1117   Si       0.20361    0.09794    0.98709    1.000
    N1118    N        0.22197    0.14367    0.89445    1.000
    Si1119   Si       0.20310    0.22169    0.94213    1.000
    Si1120   Si       0.20827    0.14655    0.93463    1.000
    N1121    N        0.20625    0.18160    0.96188    1.000
    N1122    N        0.21654    0.25344    0.96913    1.000
    Si1123   Si       0.19878    0.27360    0.07976    1.000
    N1124    N        0.21905    0.27466    0.04152    1.000
    N1125    N        0.17907    0.36130    0.11664    1.000
    N1126    N        0.21890    0.29730    0.11112    1.000
    N1127    N        0.19286    0.46475    0.06388    1.000
    Si1128   Si       0.18678    0.40114    0.09547    1.000
    Si1129   Si       0.19535    0.47531    0.10822    1.000
    N1130    N        0.22002    0.39371    0.06535    1.000
    N1131    N        0.22486    0.44140    0.00768    1.000
    Si1132   Si       0.22219    0.39944    0.02401    1.000
    Si1133   Si       0.21712    0.34153    0.12233    1.000
    N1134    N        0.19435    0.35887    0.21832    1.000
    N1135    N        0.16861    0.28909    0.19624    1.000
    Si1136   Si       0.16914    0.32364    0.22533    1.000
    Si1137   Si       0.20223    0.42407    0.16532    1.000
    N1138    N        0.16694    0.41388    0.18631    1.000
    N1139    N        0.18564    0.50548    0.14222    1.000
    N1140    N        0.21638    0.45816    0.18963    1.000
    Si1141   Si       0.18854    0.49129    0.18410    1.000
    N1142    N        0.19457    0.43385    0.12373    1.000
    Si1143   Si       0.19661    0.29907    0.35985    1.000
    N1144    N        0.18158    0.37346    0.33712    1.000
    N1145    N        0.17998    0.30135    0.26006    1.000
    N1146    N        0.20999    0.31545    0.32168    1.000
    Si1147   Si       0.21647    0.31648    0.27854    1.000
    Si1148   Si       0.21934    0.35766    0.32511    1.000
    N1149    N        0.22803    0.35979    0.28344    1.000
    N1150    N        0.19558    0.43536    0.30933    1.000
    Si1151   Si       0.19438    0.43575    0.26575    1.000
    N1152    N        0.18726    0.47694    0.25746    1.000
    N1153    N        0.21876    0.47960    0.36556    1.000
    Si1154   Si       0.16961    0.41513    0.33694    1.000
    Si1155   Si       0.21110    0.50977    0.27519    1.000
    Si1156   Si       0.17244    0.27049    0.45454    1.000
    N1157    N        0.18593    0.37610    0.42244    1.000
    N1158    N        0.19340    0.30893    0.45776    1.000
    N1159    N        0.21611    0.31665    0.39324    1.000
    N1160    N        0.16910    0.36258    0.48642    1.000
    Si1161   Si       0.21155    0.31454    0.50224    1.000
    N1162    N        0.22093    0.47001    0.48776    1.000
    N1163    N        0.17213    0.43014    0.37672    1.000
    Si1164   Si       0.18162    0.47220    0.38658    1.000
    N1165    N        0.18260    0.48037    0.42758    1.000
    Si1166   Si       0.21384    0.49938    0.45056    1.000
    N1167    N        0.19194    0.30219    0.59150    1.000
    N1168    N        0.20274    0.27611    0.51974    1.000
    N1169    N        0.17629    0.36742    0.58546    1.000
    N1170    N        0.21808    0.35143    0.52412    1.000
    Si1171   Si       0.18606    0.25849    0.59317    1.000
    Si1172   Si       0.20325    0.38668    0.50206    1.000
    N1173    N        0.18783    0.48109    0.56659    1.000
    Si1174   Si       0.20862    0.46430    0.52959    1.000
    N1175    N        0.19666    0.42025    0.53244    1.000
    Si1176   Si       0.18140    0.46175    0.60478    1.000
    N1177    N        0.22331    0.46739    0.62016    1.000
    Si1178   Si       0.17453    0.38804    0.62235    1.000
    Si1179   Si       0.18021    0.30379    0.70435    1.000
    N1180    N        0.21617    0.29965    0.68055    1.000
    N1181    N        0.18726    0.28485    0.74601    1.000
    N1182    N        0.21324    0.39520    0.63836    1.000
    N1183    N        0.17476    0.45572    0.74367    1.000
    Si1184   Si       0.22353    0.40168    0.67907    1.000
    Si1185   Si       0.18634    0.41430    0.73941    1.000
    N1186    N        0.19741    0.48423    0.68053    1.000
    N1187    N        0.18233    0.40421    0.69757    1.000
    N1188    N        0.19415    0.34134    0.78850    1.000
    Si1189   Si       0.20934    0.36494    0.82359    1.000
    Si1190   Si       0.18891    0.27072    0.82933    1.000
    Si1191   Si       0.21322    0.30756    0.77184    1.000
    N1192    N        0.18423    0.29505    0.86687    1.000
    N1193    N        0.16969    0.38012    0.83496    1.000
    N1194    N        0.22163    0.27615    0.80118    1.000
    Si1195   Si       0.19934    0.49405    0.86506    1.000
    N1196    N        0.22124    0.46971    0.83758    1.000
    Si1197   Si       0.21251    0.32457    0.88740    1.000
    N1198    N        0.18684    0.31892    0.95067    1.000
    N1199    N        0.18267    0.35637    0.89773    1.000
    Si1200   Si       0.19408    0.33695    0.99117    1.000
    N1201    N        0.19878    0.37992    0.99322    1.000
    Si1202   Si       0.22290    0.29473    0.95596    1.000
    N1203    N        0.21549    0.48283    0.90463    1.000
    Si1204   Si       0.22323    0.44116    0.91662    1.000
    Si1205   Si       0.17049    0.40336    0.96995    1.000
    N1206    N        0.20662    0.41943    0.88140    1.000
    Si1207   Si       0.20151    0.46248    0.97855    1.000
    N1208    N        0.19152    0.43605    0.94728    1.000
    Si1209   Si       0.17080    0.39485    0.87684    1.000
    N1210    N        0.16811    0.49033    0.98924    1.000
    N1211    N        0.17960    0.60907    0.08251    1.000
    N1212    N        0.20129    0.54340    0.07442    1.000
    Si1213   Si       0.20913    0.61944    0.05223    1.000
    N1214    N        0.19512    0.63219    0.00947    1.000
    N1215    N        0.20158    0.55667    0.00095    1.000
    Si1216   Si       0.16373    0.56921    0.07350    1.000
    Si1217   Si       0.22467    0.54422    0.03548    1.000
    Si1218   Si       0.21773    0.67068    0.01406    1.000
    N1219    N        0.19662    0.70781    0.02696    1.000
    Si1220   Si       0.19689    0.72849    0.06657    1.000
    N1221    N        0.21464    0.70628    0.09646    1.000
    Si1222   Si       0.19427    0.74402    0.00099    1.000
    N1223    N        0.21038    0.59434    0.17771    1.000
    Si1224   Si       0.19872    0.55329    0.16304    1.000
    N1225    N        0.20981    0.52723    0.19511    1.000
    Si1226   Si       0.16509    0.61102    0.24080    1.000
    Si1227   Si       0.20488    0.63580    0.17667    1.000
    Si1228   Si       0.20213    0.72543    0.20655    1.000
    N1229    N        0.18655    0.64559    0.21933    1.000
    N1230    N        0.20088    0.64965    0.13604    1.000
    N1231    N        0.19204    0.75368    0.24402    1.000
    N1232    N        0.21940    0.71111    0.16750    1.000
    Si1233   Si       0.21023    0.60557    0.29404    1.000
    N1234    N        0.18056    0.58507    0.27042    1.000
    N1235    N        0.18169    0.52719    0.30446    1.000
    Si1236   Si       0.17002    0.53036    0.34539    1.000
    N1237    N        0.20670    0.54263    0.36717    1.000
    Si1238   Si       0.18977    0.63220    0.36278    1.000
    N1239    N        0.18925    0.63598    0.31819    1.000
    Si1240   Si       0.17952    0.72946    0.27742    1.000
    N1241    N        0.20241    0.75133    0.30858    1.000
    N1242    N        0.16637    0.69041    0.27183    1.000
    N1243    N        0.19850    0.53817    0.46338    1.000
    Si1244   Si       0.20593    0.58040    0.45867    1.000
    N1245    N        0.17087    0.60126    0.44769    1.000
    Si1246   Si       0.20388    0.68283    0.42144    1.000
    Si1247   Si       0.16652    0.64152    0.46823    1.000
    N1248    N        0.16905    0.73191    0.49322    1.000
    N1249    N        0.17996    0.66704    0.38495    1.000
    Si1250   Si       0.17489    0.75265    0.39283    1.000
    N1251    N        0.19133    0.72448    0.42349    1.000
    N1252    N        0.20329    0.66280    0.46052    1.000
    Si1253   Si       0.19857    0.74209    0.46266    1.000
    N1254    N        0.19819    0.59399    0.55711    1.000
    Si1255   Si       0.19947    0.62252    0.52488    1.000
    N1256    N        0.21624    0.53639    0.59455    1.000
    Si1257   Si       0.17762    0.53311    0.61704    1.000
    N1258    N        0.22027    0.60084    0.49531    1.000
    N1259    N        0.20978    0.67166    0.60396    1.000
    N1260    N        0.20853    0.73003    0.55522    1.000
    Si1261   Si       0.17859    0.74684    0.53317    1.000
    N1262    N        0.21972    0.66461    0.53104    1.000
    Si1263   Si       0.22301    0.68935    0.56526    1.000
    N1264    N        0.21608    0.60523    0.62383    1.000
    N1265    N        0.17482    0.60354    0.68909    1.000
    Si1266   Si       0.20594    0.58620    0.66128    1.000
    N1267    N        0.19013    0.54672    0.65621    1.000
    Si1268   Si       0.18188    0.60508    0.73228    1.000
    Si1269   Si       0.19362    0.52379    0.69127    1.000
    N1270    N        0.21663    0.63155    0.72968    1.000
    Si1271   Si       0.17440    0.68160    0.62667    1.000
    N1272    N        0.18664    0.70585    0.66151    1.000
    Si1273   Si       0.20880    0.74265    0.67311    1.000
    N1274    N        0.19369    0.73750    0.71500    1.000
    Si1275   Si       0.20069    0.55449    0.82303    1.000
    Si1276   Si       0.20634    0.61918    0.85496    1.000
    N1277    N        0.21204    0.53576    0.86078    1.000
    N1278    N        0.21880    0.52661    0.79369    1.000
    N1279    N        0.22013    0.59495    0.82158    1.000
    N1280    N        0.18553    0.56808    0.75501    1.000
    N1281    N        0.19045    0.68886    0.76176    1.000
    Si1282   Si       0.19566    0.73195    0.75819    1.000
    N1283    N        0.16792    0.75444    0.78389    1.000
    Si1284   Si       0.18894    0.57462    0.92048    1.000
    N1285    N        0.18270    0.53450    0.93847    1.000
    N1286    N        0.19146    0.60843    0.95063    1.000
    N1287    N        0.21555    0.59576    0.89084    1.000
    Si1288   Si       0.17214    0.53286    0.98121    1.000
    Si1289   Si       0.21438    0.59545    0.99133    1.000
    Si1290   Si       0.22264    0.51288    0.93266    1.000
    Si1291   Si       0.20310    0.63935    0.91949    1.000
    N1292    N        0.17977    0.66677    0.94674    1.000
    N1293    N        0.19008    0.65543    0.88011    1.000
    N1294    N        0.20558    0.71850    0.89418    1.000
    Si1295   Si       0.16640    0.63473    0.97511    1.000
    Si1296   Si       0.18036    0.70712    0.92855    1.000
    N1297    N        0.18181    0.73679    0.95915    1.000
    Si1298   Si       0.22141    0.75818    0.88455    1.000
    N1299    N        0.18840    0.85818    0.11213    1.000
    N1300    N        0.22061    0.76503    0.05702    1.000
    Si1301   Si       0.17018    0.82162    0.09766    1.000
    N1302    N        0.16605    0.82433    0.05395    1.000
    N1303    N        0.19563    0.79045    0.11879    1.000
    Si1304   Si       0.20123    0.96185    0.09095    1.000
    N1305    N        0.21125    0.92183    0.10136    1.000
    Si1306   Si       0.17976    0.90008    0.12062    1.000
    Si1307   Si       0.20807    0.85379    0.15259    1.000
    N1308    N        0.17904    0.83042    0.17462    1.000
    Si1309   Si       0.18774    0.79019    0.16353    1.000
    N1310    N        0.21616    0.76779    0.18701    1.000
    Si1311   Si       0.22536    0.77521    0.22988    1.000
    N1312    N        0.20195    0.99222    0.12160    1.000
    N1313    N        0.18002    0.93829    0.22530    1.000
    Si1314   Si       0.21805    0.96046    0.22546    1.000
    Si1315   Si       0.17165    0.91770    0.18859    1.000
    Si1316   Si       0.19620    0.98222    0.16260    1.000
    N1317    N        0.19749    0.89455    0.16362    1.000
    Si1318   Si       0.19379    0.83845    0.25834    1.000
    Si1319   Si       0.17115    0.78135    0.30800    1.000
    N1320    N        0.17078    0.81872    0.28916    1.000
    N1321    N        0.20736    0.77260    0.37087    1.000
    N1322    N        0.22418    0.86276    0.27582    1.000
    N1323    N        0.19741    0.00662    0.32451    1.000
    Si1324   Si       0.19490    0.98035    0.29024    1.000
    N1325    N        0.20554    0.89477    0.34425    1.000
    Si1326   Si       0.21531    0.93771    0.34359    1.000
    N1327    N        0.18144    0.95684    0.36593    1.000
    N1328    N        0.21067    0.99475    0.25092    1.000
    Si1329   Si       0.16564    0.99875    0.35586    1.000
    N1330    N        0.22144    0.94818    0.30264    1.000
    N1331    N        0.16957    0.84910    0.48483    1.000
    Si1332   Si       0.21660    0.81651    0.37858    1.000
    N1333    N        0.17944    0.83829    0.38064    1.000
    N1334    N        0.19420    0.78492    0.46043    1.000
    Si1335   Si       0.16926    0.80521    0.48849    1.000
    Si1336   Si       0.18850    0.88090    0.38261    1.000
    N1337    N        0.16880    0.94205    0.44032    1.000
    N1338    N        0.21847    0.90103    0.40838    1.000
    N1339    N        0.21049    0.90687    0.48922    1.000
    Si1340   Si       0.20772    0.92464    0.44619    1.000
    N1341    N        0.18122    0.00730    0.46762    1.000
    Si1342   Si       0.20377    0.81288    0.55721    1.000
    N1343    N        0.20159    0.85314    0.54290    1.000
    N1344    N        0.18281    0.79109    0.52541    1.000
    N1345    N        0.17567    0.80296    0.58860    1.000
    Si1346   Si       0.20722    0.86536    0.49989    1.000
    Si1347   Si       0.18796    0.88772    0.56486    1.000
    N1348    N        0.18341    0.89418    0.60685    1.000
    N1349    N        0.20912    0.97222    0.52173    1.000
    Si1350   Si       0.18092    0.93885    0.61249    1.000
    Si1351   Si       0.17055    0.97535    0.54034    1.000
    N1352    N        0.22217    0.95666    0.60956    1.000
    N1353    N        0.21574    0.83445    0.63940    1.000
    Si1354   Si       0.18158    0.80845    0.63314    1.000
    N1355    N        0.18258    0.85352    0.72722    1.000
    N1356    N        0.18311    0.76796    0.64584    1.000
    Si1357   Si       0.20918    0.87639    0.63787    1.000
    N1358    N        0.21785    0.79417    0.74492    1.000
    Si1359   Si       0.16341    0.85732    0.68779    1.000
    N1360    N        0.16788    0.94797    0.65275    1.000
    N1361    N        0.17693    0.92240    0.73121    1.000
    Si1362   Si       0.18718    0.92859    0.68938    1.000
    N1363    N        0.19108    0.88840    0.67381    1.000
    Si1364   Si       0.18827    0.85655    0.81883    1.000
    N1365    N        0.18350    0.81949    0.79742    1.000
    Si1366   Si       0.17765    0.78078    0.81740    1.000
    Si1367   Si       0.18181    0.81775    0.75395    1.000
    N1368    N        0.21102    0.76558    0.83930    1.000
    N1369    N        0.16985    0.84089    0.85712    1.000
    N1370    N        0.16765    0.88163    0.79091    1.000
    N1371    N        0.22493    0.87656    0.83116    1.000
    Si1372   Si       0.19244    0.88781    0.75305    1.000
    Si1373   Si       0.18610    0.96957    0.77514    1.000
    Si1374   Si       0.20082    0.97430    0.83825    1.000
    N1375    N        0.21201    0.94628    0.80462    1.000
    N1376    N        0.17273    0.99145    0.81003    1.000
    N1377    N        0.21361    0.98936    0.74793    1.000
    Si1378   Si       0.19204    0.82212    0.88988    1.000
    N1379    N        0.19350    0.78156    0.90552    1.000
    N1380    N        0.18083    0.79745    0.97695    1.000
    Si1381   Si       0.20425    0.83270    0.96330    1.000
    N1382    N        0.18251    0.84381    0.92605    1.000
    Si1383   Si       0.16903    0.77437    0.94093    1.000
    N1384    N        0.20949    0.86602    0.99056    1.000
    N1385    N        0.17668    0.96004    0.87095    1.000
    Si1386   Si       0.17892    0.88614    0.91742    1.000
    N1387    N        0.21814    0.89215    0.90010    1.000
    Si1388   Si       0.18480    0.90198    0.99398    1.000
    N1389    N        0.19227    0.99965    0.97708    1.000
    N1390    N        0.20918    0.95529    0.92820    1.000
    N1391    N        0.21919    0.92951    0.99266    1.000
    Si1392   Si       0.22176    0.96585    0.96797    1.000
    Si1393   Si       0.18155    0.98170    0.90971    1.000
    N1394    N        0.24243    0.10942    0.08881    1.000
    Si1395   Si       0.27227    0.11078    0.01901    1.000
    N1396    N        0.23077    0.09396    0.02103    1.000
    N1397    N        0.27403    0.01769    0.02298    1.000
    Si1398   Si       0.25475    0.00849    0.06279    1.000
    N1399    N        0.23659    0.17734    0.08593    1.000
    N1400    N        0.26807    0.15183    0.00632    1.000
    Si1401   Si       0.26741    0.17715    0.11576    1.000
    Si1402   Si       0.25541    0.09039    0.20703    1.000
    N1403    N        0.26416    0.02566    0.15541    1.000
    Si1404   Si       0.24204    0.10819    0.13807    1.000
    N1405    N        0.23609    0.05813    0.23467    1.000
    N1406    N        0.23115    0.08697    0.17297    1.000
    N1407    N        0.26564    0.13101    0.21416    1.000
    Si1408   Si       0.27533    0.03664    0.23087    1.000
    N1409    N        0.24084    0.25732    0.17184    1.000
    Si1410   Si       0.25019    0.16098    0.18708    1.000
    Si1411   Si       0.27454    0.22900    0.16873    1.000
    N1412    N        0.25628    0.14842    0.14600    1.000
    N1413    N        0.27361    0.19483    0.19621    1.000
    N1414    N        0.25157    0.05147    0.30474    1.000
    N1415    N        0.23939    0.11929    0.27153    1.000
    Si1416   Si       0.23384    0.07769    0.27614    1.000
    N1417    N        0.25779    0.01871    0.36184    1.000
    Si1418   Si       0.22648    0.03625    0.33507    1.000
    Si1419   Si       0.27811    0.13525    0.25759    1.000
    N1420    N        0.24301    0.22923    0.28692    1.000
    N1421    N        0.27100    0.08541    0.38161    1.000
    Si1422   Si       0.24756    0.04241    0.45180    1.000
    N1423    N        0.25324    0.07895    0.47565    1.000
    Si1424   Si       0.26989    0.12254    0.40343    1.000
    Si1425   Si       0.22913    0.07644    0.39443    1.000
    N1426    N        0.22888    0.11213    0.41769    1.000
    N1427    N        0.24790    0.00732    0.47576    1.000
    N1428    N        0.26357    0.16359    0.39264    1.000
    Si1429   Si       0.23876    0.23899    0.45759    1.000
    N1430    N        0.28011    0.23965    0.37486    1.000
    Si1431   Si       0.23356    0.17898    0.42176    1.000
    N1432    N        0.26077    0.20641    0.43995    1.000
    N1433    N        0.25001    0.10713    0.54036    1.000
    N1434    N        0.26626    0.07898    0.60063    1.000
    Si1435   Si       0.23400    0.10127    0.58107    1.000
    N1436    N        0.22840    0.02643    0.59472    1.000
    Si1437   Si       0.22703    0.08638    0.50974    1.000
    Si1438   Si       0.24912    0.23332    0.59953    1.000
    Si1439   Si       0.26586    0.16223    0.60332    1.000
    N1440    N        0.25320    0.23704    0.50089    1.000
    N1441    N        0.22882    0.14064    0.60072    1.000
    N1442    N        0.25866    0.19774    0.62309    1.000
    N1443    N        0.28179    0.17168    0.56477    1.000
    N1444    N        0.28430    0.24358    0.57533    1.000
    Si1445   Si       0.24979    0.04611    0.62995    1.000
    Si1446   Si       0.26337    0.04762    0.70049    1.000
    N1447    N        0.24945    0.12455    0.72284    1.000
    N1448    N        0.27470    0.06843    0.66324    1.000
    N1449    N        0.22520    0.05561    0.72231    1.000
    Si1450   Si       0.27456    0.10015    0.74726    1.000
    N1451    N        0.27297    0.00818    0.63242    1.000
    N1452    N        0.26916    0.24421    0.66665    1.000
    N1453    N        0.24821    0.18605    0.68968    1.000
    Si1454   Si       0.25222    0.16855    0.73115    1.000
    Si1455   Si       0.27645    0.20206    0.66195    1.000
    N1456    N        0.25539    0.09651    0.78604    1.000
    N1457    N        0.26389    0.02274    0.77869    1.000
    Si1458   Si       0.26156    0.01999    0.82414    1.000
    N1459    N        0.27446    0.12071    0.85455    1.000
    Si1460   Si       0.22530    0.02957    0.75901    1.000
    N1461    N        0.22462    0.01166    0.84551    1.000
    N1462    N        0.28001    0.05664    0.84458    1.000
    N1463    N        0.25358    0.25648    0.85998    1.000
    Si1464   Si       0.22817    0.22110    0.86507    1.000
    Si1465   Si       0.25778    0.18387    0.80437    1.000
    N1466    N        0.24797    0.18725    0.84609    1.000
    N1467    N        0.26001    0.22695    0.79503    1.000
    N1468    N        0.23086    0.17126    0.77162    1.000
    Si1469   Si       0.22783    0.24526    0.76999    1.000
    Si1470   Si       0.26604    0.08410    0.87728    1.000
    N1471    N        0.24378    0.05000    0.95725    1.000
    Si1472   Si       0.27269    0.02377    0.98081    1.000
    Si1473   Si       0.26227    0.08853    0.95094    1.000
    N1474    N        0.22938    0.11650    0.95706    1.000
    N1475    N        0.22301    0.07640    0.87985    1.000
    Si1476   Si       0.25775    0.15551    0.87305    1.000
    N1477    N        0.22918    0.21716    0.90836    1.000
    Si1478   Si       0.23831    0.18242    0.99226    1.000
    N1479    N        0.26894    0.19637    0.96302    1.000
    Si1480   Si       0.27113    0.20674    0.92054    1.000
    Si1481   Si       0.25327    0.29619    0.02533    1.000
    N1482    N        0.25525    0.36176    0.11135    1.000
    N1483    N        0.27106    0.32702    0.05142    1.000
    N1484    N        0.26332    0.39154    0.01146    1.000
    Si1485   Si       0.25998    0.40382    0.08135    1.000
    N1486    N        0.26433    0.44547    0.06187    1.000
    N1487    N        0.23746    0.49012    0.10965    1.000
    Si1488   Si       0.22965    0.46575    0.04486    1.000
    Si1489   Si       0.27188    0.46672    0.11658    1.000
    N1490    N        0.24522    0.50696    0.03261    1.000
    N1491    N        0.27177    0.42276    0.12205    1.000
    Si1492   Si       0.23139    0.35790    0.19716    1.000
    N1493    N        0.26069    0.35992    0.22705    1.000
    Si1494   Si       0.24538    0.28927    0.14428    1.000
    N1495    N        0.23105    0.32842    0.16480    1.000
    N1496    N        0.28439    0.30469    0.13107    1.000
    Si1497   Si       0.28020    0.32223    0.24362    1.000
    N1498    N        0.23197    0.39248    0.17048    1.000
    Si1499   Si       0.24772    0.44942    0.21559    1.000
    N1500    N        0.26758    0.49154    0.21534    1.000
    Si1501   Si       0.26713    0.38696    0.14473    1.000
    N1502    N        0.23189    0.42427    0.24778    1.000
    N1503    N        0.25172    0.36538    0.35302    1.000
    N1504    N        0.25202    0.29587    0.26445    1.000
    Si1505   Si       0.27093    0.25698    0.27217    1.000
    Si1506   Si       0.22581    0.45978    0.32848    1.000
    Si1507   Si       0.25103    0.38804    0.25878    1.000
    N1508    N        0.24223    0.48743    0.29895    1.000
    N1509    N        0.25549    0.43044    0.33488    1.000
    Si1510   Si       0.26929    0.40327    0.36546    1.000
    N1511    N        0.28284    0.50163    0.36008    1.000
    Si1512   Si       0.28060    0.49681    0.31516    1.000
    Si1513   Si       0.22885    0.38497    0.42874    1.000
    N1514    N        0.25046    0.31155    0.48418    1.000
    Si1515   Si       0.25151    0.33845    0.38519    1.000
    Si1516   Si       0.23328    0.31132    0.43950    1.000
    N1517    N        0.25471    0.34885    0.42816    1.000
    Si1518   Si       0.25325    0.27206    0.38791    1.000
    N1519    N        0.24600    0.27161    0.43016    1.000
    N1520    N        0.27829    0.30584    0.37803    1.000
    N1521    N        0.22804    0.40114    0.46992    1.000
    N1522    N        0.24737    0.50623    0.42214    1.000
    N1523    N        0.27918    0.45358    0.45588    1.000
    Si1524   Si       0.25039    0.43732    0.48131    1.000
    N1525    N        0.24737    0.41162    0.40126    1.000
    N1526    N        0.25942    0.31138    0.56833    1.000
    Si1527   Si       0.25302    0.34869    0.54961    1.000
    Si1528   Si       0.23302    0.30634    0.60401    1.000
    Si1529   Si       0.24931    0.37892    0.61829    1.000
    N1530    N        0.22775    0.26322    0.62164    1.000
    N1531    N        0.25191    0.38435    0.57472    1.000
    Si1532   Si       0.26217    0.42308    0.55562    1.000
    N1533    N        0.24566    0.46674    0.55203    1.000
    N1534    N        0.27196    0.41807    0.51632    1.000
    Si1535   Si       0.23190    0.49466    0.58723    1.000
    N1536    N        0.27331    0.50689    0.59707    1.000
    Si1537   Si       0.24844    0.33065    0.67440    1.000
    N1538    N        0.24559    0.33692    0.63032    1.000
    N1539    N        0.25181    0.37115    0.69245    1.000
    Si1540   Si       0.27237    0.29868    0.73211    1.000
    Si1541   Si       0.25125    0.36861    0.73873    1.000
    Si1542   Si       0.22776    0.25941    0.66553    1.000
    N1543    N        0.25685    0.26107    0.74246    1.000
    N1544    N        0.27963    0.48868    0.72546    1.000
    Si1545   Si       0.25660    0.44981    0.73101    1.000
    Si1546   Si       0.23323    0.46901    0.66117    1.000
    N1547    N        0.24755    0.43749    0.68842    1.000
    N1548    N        0.22810    0.40364    0.74780    1.000
    N1549    N        0.23491    0.34045    0.85195    1.000
    Si1550   Si       0.27875    0.32925    0.84569    1.000
    Si1551   Si       0.26160    0.26444    0.81889    1.000
    N1552    N        0.27902    0.38072    0.77094    1.000
    N1553    N        0.24116    0.32650    0.74526    1.000
    N1554    N        0.23152    0.40141    0.81802    1.000
    Si1555   Si       0.25333    0.41558    0.78359    1.000
    N1556    N        0.24259    0.45927    0.77234    1.000
    Si1557   Si       0.23960    0.49029    0.80294    1.000
    Si1558   Si       0.23536    0.42918    0.85108    1.000
    N1559    N        0.27932    0.50460    0.81065    1.000
    N1560    N        0.23838    0.29980    0.91492    1.000
    Si1561   Si       0.26894    0.27689    0.89586    1.000
    N1562    N        0.23643    0.31734    0.99216    1.000
    N1563    N        0.23088    0.49401    0.96922    1.000
    N1564    N        0.25886    0.43267    0.94247    1.000
    Si1565   Si       0.26166    0.42803    0.98627    1.000
    Si1566   Si       0.26687    0.49722    0.99412    1.000
    N1567    N        0.26900    0.43144    0.87703    1.000
    N1568    N        0.23719    0.58843    0.04043    1.000
    Si1569   Si       0.23565    0.53331    0.10179    1.000
    N1570    N        0.27303    0.54629    0.08070    1.000
    Si1571   Si       0.27821    0.58359    0.05948    1.000
    N1572    N        0.23885    0.65265    0.04972    1.000
    Si1573   Si       0.25006    0.58463    0.16590    1.000
    N1574    N        0.26921    0.56321    0.19716    1.000
    Si1575   Si       0.24842    0.52936    0.21568    1.000
    N1576    N        0.23439    0.55785    0.13562    1.000
    N1577    N        0.28084    0.61334    0.15130    1.000
    N1578    N        0.22638    0.70080    0.23604    1.000
    Si1579   Si       0.22560    0.68561    0.13305    1.000
    Si1580   Si       0.23013    0.65799    0.23069    1.000
    N1581    N        0.24408    0.65049    0.18995    1.000
    N1582    N        0.27819    0.66852    0.24203    1.000
    N1583    N        0.26816    0.67664    0.12955    1.000
    Si1584   Si       0.27832    0.65321    0.16707    1.000
    Si1585   Si       0.24450    0.74617    0.16274    1.000
    Si1586   Si       0.26631    0.56260    0.28308    1.000
    N1587    N        0.24118    0.57984    0.31356    1.000
    N1588    N        0.23822    0.53877    0.25595    1.000
    Si1589   Si       0.23313    0.57552    0.35706    1.000
    N1590    N        0.23247    0.62801    0.26301    1.000
    Si1591   Si       0.27472    0.63414    0.26806    1.000
    N1592    N        0.24835    0.70861    0.34978    1.000
    Si1593   Si       0.23352    0.75040    0.34055    1.000
    Si1594   Si       0.26637    0.71209    0.25216    1.000
    Si1595   Si       0.27683    0.68618    0.32367    1.000
    N1596    N        0.23095    0.61583    0.37051    1.000
    N1597    N        0.26792    0.55998    0.37703    1.000
    N1598    N        0.24307    0.59985    0.43831    1.000
    Si1599   Si       0.25876    0.61287    0.47715    1.000
    Si1600   Si       0.25578    0.62642    0.40565    1.000
    Si1601   Si       0.24502    0.51641    0.37952    1.000
    N1602    N        0.23268    0.71885    0.47550    1.000
    N1603    N        0.26759    0.65363    0.48167    1.000
    Si1604   Si       0.23099    0.67784    0.49016    1.000
    Si1605   Si       0.26762    0.74266    0.47606    1.000
    Si1606   Si       0.27184    0.69445    0.38557    1.000
    N1607    N        0.24429    0.66985    0.40872    1.000
    N1608    N        0.26718    0.58313    0.58239    1.000
    N1609    N        0.27931    0.52332    0.53588    1.000
    Si1610   Si       0.28183    0.54438    0.57326    1.000
    Si1611   Si       0.22454    0.57854    0.58821    1.000
    N1612    N        0.26350    0.70774    0.57000    1.000
    Si1613   Si       0.24915    0.74764    0.55633    1.000
    N1614    N        0.27505    0.64772    0.60027    1.000
    N1615    N        0.26934    0.75347    0.51823    1.000
    N1616    N        0.24400    0.58705    0.68284    1.000
    Si1617   Si       0.26566    0.52378    0.70389    1.000
    N1618    N        0.22637    0.52863    0.72183    1.000
    Si1619   Si       0.24822    0.62585    0.69884    1.000
    N1620    N        0.26032    0.50509    0.66501    1.000
    Si1621   Si       0.23718    0.64379    0.62256    1.000
    N1622    N        0.25763    0.68730    0.72545    1.000
    Si1623   Si       0.26020    0.69087    0.68069    1.000
    N1624    N        0.25096    0.73093    0.66569    1.000
    Si1625   Si       0.28025    0.75002    0.63921    1.000
    N1626    N        0.24618    0.65322    0.66520    1.000
    Si1627   Si       0.25227    0.60800    0.79727    1.000
    N1628    N        0.25575    0.58018    0.76136    1.000
    Si1629   Si       0.22421    0.54955    0.75752    1.000
    Si1630   Si       0.24283    0.74500    0.81695    1.000
    N1631    N        0.24789    0.65160    0.78724    1.000
    Si1632   Si       0.25959    0.67083    0.82203    1.000
    N1633    N        0.24144    0.70589    0.83905    1.000
    N1634    N        0.24999    0.64542    0.85521    1.000
    N1635    N        0.23791    0.73542    0.77286    1.000
    Si1636   Si       0.22685    0.66617    0.75336    1.000
    Si1637   Si       0.27262    0.72289    0.74507    1.000
    N1638    N        0.28341    0.54773    0.86886    1.000
    Si1639   Si       0.24312    0.55918    0.88231    1.000
    Si1640   Si       0.27397    0.56563    0.95393    1.000
    N1641    N        0.25688    0.59793    0.97661    1.000
    N1642    N        0.24652    0.54877    0.92525    1.000
    Si1643   Si       0.27504    0.63579    0.98329    1.000
    N1644    N        0.24820    0.67234    0.98388    1.000
    Si1645   Si       0.26483    0.71306    0.97963    1.000
    N1646    N        0.23901    0.66356    0.91612    1.000
    N1647    N        0.27834    0.71558    0.93878    1.000
    Si1648   Si       0.22704    0.68173    0.87577    1.000
    Si1649   Si       0.27959    0.67427    0.92728    1.000
    N1650    N        0.24000    0.74595    0.99468    1.000
    N1651    N        0.25122    0.82080    0.08722    1.000
    N1652    N        0.25540    0.81523    0.01870    1.000
    Si1653   Si       0.25031    0.77326    0.02709    1.000
    Si1654   Si       0.26013    0.84451    0.05036    1.000
    Si1655   Si       0.23172    0.78154    0.09555    1.000
    Si1656   Si       0.27904    0.82947    0.11771    1.000
    N1657    N        0.25472    0.75937    0.12310    1.000
    N1658    N        0.24392    0.88692    0.04755    1.000
    N1659    N        0.23738    0.96876    0.06826    1.000
    Si1660   Si       0.24569    0.92438    0.07177    1.000
    Si1661   Si       0.24253    0.89360    0.00214    1.000
    N1662    N        0.28506    0.92155    0.09153    1.000
    N1663    N        0.28562    0.75372    0.17502    1.000
    N1664    N        0.24937    0.84012    0.15068    1.000
    N1665    N        0.26890    0.86838    0.21748    1.000
    Si1666   Si       0.28059    0.86236    0.17467    1.000
    N1667    N        0.22628    0.81664    0.23732    1.000
    N1668    N        0.26105    0.75228    0.23716    1.000
    N1669    N        0.27440    0.90375    0.16484    1.000
    Si1670   Si       0.26859    0.91281    0.20761    1.000
    N1671    N        0.24533    0.93133    0.23887    1.000
    N1672    N        0.28015    0.99748    0.21491    1.000
    N1673    N        0.23009    0.96451    0.18178    1.000
    Si1674   Si       0.26765    0.98623    0.17435    1.000
    N1675    N        0.24213    0.83550    0.34744    1.000
    N1676    N        0.26798    0.77517    0.33005    1.000
    Si1677   Si       0.25555    0.84564    0.25126    1.000
    Si1678   Si       0.23247    0.86954    0.32080    1.000
    N1679    N        0.26692    0.89642    0.30868    1.000
    Si1680   Si       0.25707    0.92999    0.28084    1.000
    N1681    N        0.25052    0.95001    0.36729    1.000
    Si1682   Si       0.23021    0.80910    0.45651    1.000
    N1683    N        0.23798    0.82019    0.41442    1.000
    N1684    N        0.23842    0.83613    0.48848    1.000
    N1685    N        0.26359    0.78014    0.45436    1.000
    Si1686   Si       0.28231    0.83771    0.49066    1.000
    N1687    N        0.24513    0.94675    0.44024    1.000
    Si1688   Si       0.26689    0.96822    0.47042    1.000
    Si1689   Si       0.25534    0.92536    0.40340    1.000
    N1690    N        0.24005    0.79155    0.56589    1.000
    Si1691   Si       0.27567    0.79993    0.58644    1.000
    N1692    N        0.22449    0.91314    0.55763    1.000
    Si1693   Si       0.25020    0.98955    0.60248    1.000
    Si1694   Si       0.25149    0.92365    0.59362    1.000
    N1695    N        0.27461    0.96349    0.57958    1.000
    N1696    N        0.26687    0.93921    0.50366    1.000
    Si1697   Si       0.22605    0.93258    0.52063    1.000
    N1698    N        0.26295    0.78701    0.62587    1.000
    Si1699   Si       0.25696    0.82148    0.65072    1.000
    N1700    N        0.27186    0.82054    0.69434    1.000
    N1701    N        0.28125    0.76435    0.73467    1.000
    N1702    N        0.27759    0.94757    0.74104    1.000
    Si1703   Si       0.26806    0.90250    0.73946    1.000
    N1704    N        0.26499    0.00555    0.69750    1.000
    Si1705   Si       0.25401    0.92304    0.66829    1.000
    N1706    N        0.26559    0.89105    0.69680    1.000
    Si1707   Si       0.24691    0.97259    0.72085    1.000
    N1708    N        0.22818    0.94727    0.69101    1.000
    N1709    N        0.24359    0.90062    0.63120    1.000
    N1710    N        0.27015    0.77832    0.80412    1.000
    Si1711   Si       0.25046    0.77898    0.76415    1.000
    Si1712   Si       0.23630    0.91057    0.80555    1.000
    N1713    N        0.23286    0.89346    0.76546    1.000
    N1714    N        0.28020    0.91262    0.81176    1.000
    N1715    N        0.25005    0.93814    0.86709    1.000
    Si1716   Si       0.28409    0.94315    0.84138    1.000
    Si1717   Si       0.24105    0.87049    0.87148    1.000
    N1718    N        0.28293    0.87557    0.88077    1.000
    N1719    N        0.24552    0.82257    0.95076    1.000
    N1720    N        0.26252    0.76875    0.89766    1.000
    Si1721   Si       0.26260    0.81283    0.91236    1.000
    Si1722   Si       0.27491    0.83482    0.98146    1.000
    N1723    N        0.23438    0.82912    0.88251    1.000
    N1724    N        0.27666    0.87776    0.98472    1.000
    N1725    N        0.27200    0.92770    0.93463    1.000
    Si1726   Si       0.23715    0.92983    0.90723    1.000
    N1727    N        0.26025    0.98503    0.96371    1.000
    N1728    N        0.30124    0.10521    0.05372    1.000
    N1729    N        0.33646    0.04578    0.02376    1.000
    Si1730   Si       0.31220    0.01715    0.04437    1.000
    Si1731   Si       0.28702    0.11202    0.09455    1.000
    N1732    N        0.29384    0.01229    0.08393    1.000
    N1733    N        0.30063    0.15382    0.09805    1.000
    Si1734   Si       0.32132    0.24837    0.00496    1.000
    N1735    N        0.32176    0.20335    0.00091    1.000
    Si1736   Si       0.34169    0.17002    0.09545    1.000
    Si1737   Si       0.29667    0.05495    0.15770    1.000
    N1738    N        0.29160    0.06698    0.20108    1.000
    Si1739   Si       0.32461    0.08953    0.22104    1.000
    N1740    N        0.33131    0.03192    0.14132    1.000
    N1741    N        0.33658    0.12274    0.19871    1.000
    N1742    N        0.28459    0.08818    0.13015    1.000
    N1743    N        0.29355    0.24190    0.23847    1.000
    N1744    N        0.28554    0.21360    0.12935    1.000
    Si1745   Si       0.30305    0.19983    0.22913    1.000
    N1746    N        0.31625    0.24544    0.17353    1.000
    Si1747   Si       0.32629    0.23090    0.13421    1.000
    N1748    N        0.34372    0.19479    0.21477    1.000
    N1749    N        0.31308    0.07702    0.32199    1.000
    N1750    N        0.30145    0.03413    0.26486    1.000
    Si1751   Si       0.29301    0.04158    0.30572    1.000
    N1752    N        0.30992    0.10583    0.25956    1.000
    Si1753   Si       0.33270    0.10352    0.29598    1.000
    Si1754   Si       0.31185    0.08735    0.36329    1.000
    Si1755   Si       0.31948    0.18080    0.30051    1.000
    N1756    N        0.30165    0.19944    0.33496    1.000
    N1757    N        0.29601    0.17253    0.26304    1.000
    Si1758   Si       0.30502    0.24121    0.34062    1.000
    N1759    N        0.33579    0.14327    0.31639    1.000
    N1760    N        0.33118    0.12184    0.37987    1.000
    N1761    N        0.32809    0.05241    0.38013    1.000
    N1762    N        0.29813    0.11940    0.43464    1.000
    Si1763   Si       0.31753    0.02067    0.45847    1.000
    N1764    N        0.31322    0.05877    0.48086    1.000
    Si1765   Si       0.29255    0.09595    0.47124    1.000
    Si1766   Si       0.29226    0.02951    0.38874    1.000
    N1767    N        0.28443    0.03577    0.43039    1.000
    Si1768   Si       0.33951    0.12821    0.42321    1.000
    N1769    N        0.31098    0.24431    0.46271    1.000
    Si1770   Si       0.28838    0.19604    0.37885    1.000
    N1771    N        0.32239    0.19481    0.40279    1.000
    N1772    N        0.32937    0.17757    0.46515    1.000
    Si1773   Si       0.30555    0.20459    0.44447    1.000
    Si1774   Si       0.30654    0.07836    0.58428    1.000
    N1775    N        0.31858    0.11452    0.56063    1.000
    N1776    N        0.31442    0.04926    0.55331    1.000
    Si1777   Si       0.33456    0.05121    0.51713    1.000
    N1778    N        0.29873    0.12756    0.50190    1.000
    N1779    N        0.32975    0.08505    0.61990    1.000
    Si1780   Si       0.28484    0.13458    0.53995    1.000
    N1781    N        0.31793    0.21292    0.52417    1.000
    Si1782   Si       0.30756    0.20764    0.56599    1.000
    Si1783   Si       0.29578    0.24265    0.50261    1.000
    N1784    N        0.34288    0.20920    0.58863    1.000
    Si1785   Si       0.34191    0.11785    0.71793    1.000
    N1786    N        0.29089    0.06170    0.73080    1.000
    Si1787   Si       0.29736    0.09955    0.64492    1.000
    N1788    N        0.32265    0.11526    0.67978    1.000
    Si1789   Si       0.34053    0.22333    0.68891    1.000
    Si1790   Si       0.32679    0.15147    0.65520    1.000
    N1791    N        0.29179    0.14152    0.63121    1.000
    N1792    N        0.28664    0.18917    0.74544    1.000
    N1793    N        0.31367    0.24457    0.71697    1.000
    N1794    N        0.31993    0.19181    0.66744    1.000
    N1795    N        0.32531    0.09591    0.80619    1.000
    Si1796   Si       0.32191    0.06170    0.83243    1.000
    Si1797   Si       0.30307    0.02955    0.76045    1.000
    N1798    N        0.32459    0.03044    0.80074    1.000
    Si1799   Si       0.28704    0.11532    0.81190    1.000
    N1800    N        0.31176    0.12481    0.74832    1.000
    N1801    N        0.31846    0.25105    0.78404    1.000
    Si1802   Si       0.31680    0.16497    0.76452    1.000
    N1803    N        0.29205    0.15667    0.80187    1.000
    N1804    N        0.33150    0.20189    0.84632    1.000
    Si1805   Si       0.29044    0.23326    0.75232    1.000
    Si1806   Si       0.34057    0.22205    0.80907    1.000
    N1807    N        0.28950    0.08863    0.98718    1.000
    N1808    N        0.31196    0.03056    0.96326    1.000
    Si1809   Si       0.32598    0.06501    0.98751    1.000
    N1810    N        0.28283    0.09869    0.91591    1.000
    N1811    N        0.28809    0.17205    0.90022    1.000
    N1812    N        0.29015    0.24424    0.91573    1.000
    Si1813   Si       0.29939    0.17253    0.98267    1.000
    Si1814   Si       0.30840    0.13376    0.91731    1.000
    Si1815   Si       0.33173    0.18333    0.88529    1.000
    N1816    N        0.32269    0.14744    0.95601    1.000
    Si1817   Si       0.33199    0.24764    0.92626    1.000
    N1818    N        0.34070    0.14004    0.88873    1.000
    N1819    N        0.32930    0.32828    0.08726    1.000
    Si1820   Si       0.28775    0.36099    0.02948    1.000
    N1821    N        0.30032    0.37952    0.06768    1.000
    N1822    N        0.28455    0.26863    0.01629    1.000
    Si1823   Si       0.34387    0.37022    0.08042    1.000
    Si1824   Si       0.28431    0.33600    0.09223    1.000
    N1825    N        0.30559    0.47956    0.09180    1.000
    Si1826   Si       0.30347    0.46623    0.04946    1.000
    N1827    N        0.33727    0.43975    0.03850    1.000
    N1828    N        0.28872    0.46006    0.99867    1.000
    N1829    N        0.31411    0.50605    0.03402    1.000
    N1830    N        0.29723    0.36722    0.16681    1.000
    N1831    N        0.29467    0.30660    0.20521    1.000
    Si1832   Si       0.30166    0.32435    0.16702    1.000
    Si1833   Si       0.31567    0.26784    0.21207    1.000
    N1834    N        0.33200    0.37921    0.22568    1.000
    N1835    N        0.34373    0.31309    0.15961    1.000
    N1836    N        0.34163    0.47779    0.20316    1.000
    Si1837   Si       0.31500    0.39929    0.19158    1.000
    N1838    N        0.29383    0.48323    0.15200    1.000
    N1839    N        0.28722    0.43093    0.19951    1.000
    Si1840   Si       0.33064    0.50172    0.13348    1.000
    Si1841   Si       0.30035    0.47302    0.19238    1.000
    N1842    N        0.31305    0.32751    0.27090    1.000
    Si1843   Si       0.32037    0.37233    0.26709    1.000
    Si1844   Si       0.32509    0.30229    0.30465    1.000
    N1845    N        0.30073    0.26473    0.30463    1.000
    N1846    N        0.33467    0.32564    0.34111    1.000
    N1847    N        0.31122    0.40732    0.35397    1.000
    N1848    N        0.30980    0.46505    0.30887    1.000
    Si1849   Si       0.29433    0.42506    0.31551    1.000
    N1850    N        0.28840    0.39763    0.28050    1.000
    Si1851   Si       0.32021    0.31741    0.38227    1.000
    N1852    N        0.31112    0.31838    0.46123    1.000
    N1853    N        0.31591    0.35670    0.40161    1.000
    Si1854   Si       0.32866    0.28084    0.45018    1.000
    Si1855   Si       0.29793    0.35337    0.43968    1.000
    Si1856   Si       0.33487    0.39349    0.38786    1.000
    Si1857   Si       0.31648    0.43086    0.45382    1.000
    N1858    N        0.30778    0.38729    0.46557    1.000
    N1859    N        0.32208    0.49300    0.41379    1.000
    Si1860   Si       0.28462    0.49301    0.43888    1.000
    Si1861   Si       0.29526    0.28400    0.56196    1.000
    N1862    N        0.30186    0.28065    0.51978    1.000
    N1863    N        0.33115    0.29638    0.57706    1.000
    N1864    N        0.28950    0.35162    0.52327    1.000
    Si1865   Si       0.28964    0.31644    0.49846    1.000
    Si1866   Si       0.33833    0.43673    0.56169    1.000
    Si1867   Si       0.30433    0.38960    0.50895    1.000
    N1868    N        0.29572    0.44159    0.57843    1.000
    N1869    N        0.33056    0.48129    0.54138    1.000
    N1870    N        0.33684    0.40057    0.53333    1.000
    Si1871   Si       0.28807    0.48401    0.55862    1.000
    Si1872   Si       0.32030    0.33021    0.71070    1.000
    N1873    N        0.32084    0.37321    0.71085    1.000
    Si1874   Si       0.30060    0.26712    0.68148    1.000
    N1875    N        0.28559    0.30866    0.69140    1.000
    N1876    N        0.33802    0.25882    0.66066    1.000
    Si1877   Si       0.30912    0.43043    0.62064    1.000
    Si1878   Si       0.28872    0.40753    0.68205    1.000
    N1879    N        0.28021    0.40203    0.63834    1.000
    Si1880   Si       0.31861    0.46909    0.73402    1.000
    N1881    N        0.31672    0.47232    0.63571    1.000
    N1882    N        0.32980    0.42471    0.67177    1.000
    N1883    N        0.29629    0.42960    0.73090    1.000
    Si1884   Si       0.31618    0.29578    0.78826    1.000
    N1885    N        0.29942    0.36611    0.84570    1.000
    N1886    N        0.30964    0.31298    0.74975    1.000
    N1887    N        0.33758    0.38099    0.78642    1.000
    N1888    N        0.28321    0.30122    0.81390    1.000
    Si1889   Si       0.30215    0.38849    0.80904    1.000
    N1890    N        0.32282    0.48348    0.84533    1.000
    Si1891   Si       0.30345    0.46840    0.80765    1.000
    N1892    N        0.33028    0.47142    0.77509    1.000
    N1893    N        0.28909    0.42872    0.80767    1.000
    Si1894   Si       0.31965    0.39739    0.74903    1.000
    Si1895   Si       0.33307    0.31351    0.90130    1.000
    N1896    N        0.29657    0.30765    0.88066    1.000
    N1897    N        0.33163    0.26611    0.96698    1.000
    Si1898   Si       0.33516    0.31041    0.97739    1.000
    N1899    N        0.32947    0.33018    0.93929    1.000
    Si1900   Si       0.32541    0.38016    0.87878    1.000
    Si1901   Si       0.32056    0.37146    0.95575    1.000
    N1902    N        0.31176    0.34393    0.99550    1.000
    Si1903   Si       0.34110    0.45617    0.87065    1.000
    N1904    N        0.33931    0.40546    0.97697    1.000
    N1905    N        0.32680    0.45688    0.91172    1.000
    Si1906   Si       0.29221    0.43060    0.91567    1.000
    Si1907   Si       0.33025    0.44463    0.99619    1.000
    N1908    N        0.31217    0.39181    0.91856    1.000
    N1909    N        0.31261    0.57603    0.03147    1.000
    Si1910   Si       0.30643    0.52089    0.07505    1.000
    Si1911   Si       0.31914    0.54018    0.00701    1.000
    Si1912   Si       0.33615    0.61247    0.02943    1.000
    N1913    N        0.29018    0.61963    0.07970    1.000
    N1914    N        0.33838    0.53173    0.10030    1.000
    Si1915   Si       0.28058    0.65362    0.05400    1.000
    N1916    N        0.30457    0.64284    0.01810    1.000
    N1917    N        0.29742    0.69325    0.06689    1.000
    Si1918   Si       0.30306    0.69350    0.10923    1.000
    Si1919   Si       0.31273    0.72585    0.04171    1.000
    N1920    N        0.30279    0.70901    0.00192    1.000
    Si1921   Si       0.30880    0.62176    0.11926    1.000
    N1922    N        0.32327    0.54050    0.23294    1.000
    Si1923   Si       0.30299    0.57822    0.21928    1.000
    N1924    N        0.33602    0.59760    0.19823    1.000
    N1925    N        0.33981    0.53321    0.16535    1.000
    N1926    N        0.32173    0.73000    0.12147    1.000
    Si1927   Si       0.31843    0.67889    0.22634    1.000
    N1928    N        0.32951    0.66115    0.12493    1.000
    N1929    N        0.31712    0.72273    0.23340    1.000
    N1930    N        0.31436    0.66716    0.18579    1.000
    N1931    N        0.32106    0.59633    0.34349    1.000
    N1932    N        0.29648    0.53294    0.29550    1.000
    Si1933   Si       0.33354    0.54011    0.27474    1.000
    N1934    N        0.28767    0.59282    0.25904    1.000
    Si1935   Si       0.31782    0.63986    0.33652    1.000
    N1936    N        0.29974    0.67277    0.35886    1.000
    N1937    N        0.33071    0.74924    0.34544    1.000
    Si1938   Si       0.30013    0.75236    0.31260    1.000
    N1939    N        0.28735    0.64827    0.30613    1.000
    N1940    N        0.28239    0.71658    0.29421    1.000
    N1941    N        0.29728    0.52010    0.47048    1.000
    Si1942   Si       0.30312    0.58195    0.38084    1.000
    N1943    N        0.29928    0.61843    0.40294    1.000
    Si1944   Si       0.32278    0.51346    0.37591    1.000
    N1945    N        0.33675    0.55604    0.38753    1.000
    N1946    N        0.28899    0.58627    0.49335    1.000
    Si1947   Si       0.32689    0.71715    0.43416    1.000
    Si1948   Si       0.33650    0.63785    0.41614    1.000
    Si1949   Si       0.30425    0.67726    0.47850    1.000
    N1950    N        0.32103    0.67037    0.43954    1.000
    N1951    N        0.30285    0.72245    0.47023    1.000
    N1952    N        0.29777    0.72572    0.40197    1.000
    Si1953   Si       0.29912    0.61335    0.58388    1.000
    N1954    N        0.32588    0.61874    0.54936    1.000
    N1955    N        0.32490    0.54286    0.58311    1.000
    Si1956   Si       0.29956    0.54551    0.50513    1.000
    N1957    N        0.33162    0.60779    0.61702    1.000
    N1958    N        0.34186    0.55138    0.52050    1.000
    N1959    N        0.32755    0.68762    0.57079    1.000
    Si1960   Si       0.32664    0.73506    0.58354    1.000
    Si1961   Si       0.29157    0.68679    0.59465    1.000
    N1962    N        0.33895    0.67216    0.50395    1.000
    Si1963   Si       0.34387    0.65803    0.54367    1.000
    Si1964   Si       0.33628    0.56352    0.61899    1.000
    N1965    N        0.29828    0.55119    0.71403    1.000
    N1966    N        0.31581    0.54184    0.65118    1.000
    Si1967   Si       0.33045    0.53538    0.69094    1.000
    Si1968   Si       0.29345    0.58785    0.73804    1.000
    N1969    N        0.28725    0.62781    0.72021    1.000
    Si1970   Si       0.29236    0.50786    0.63608    1.000
    Si1971   Si       0.30042    0.67247    0.72490    1.000
    Si1972   Si       0.33092    0.70567    0.65540    1.000
    N1973    N        0.30497    0.71755    0.62195    1.000
    N1974    N        0.30406    0.69067    0.68573    1.000
    Si1975   Si       0.32547    0.59035    0.80955    1.000
    Si1976   Si       0.30486    0.52492    0.83755    1.000
    N1977    N        0.32600    0.59370    0.76511    1.000
    N1978    N        0.33532    0.54927    0.82197    1.000
    N1979    N        0.28810    0.60589    0.82213    1.000
    Si1980   Si       0.29588    0.63537    0.85529    1.000
    N1981    N        0.30325    0.66939    0.82579    1.000
    N1982    N        0.31314    0.70500    0.75263    1.000
    Si1983   Si       0.34332    0.74838    0.84819    1.000
    N1984    N        0.32121    0.60439    0.87818    1.000
    N1985    N        0.30815    0.58301    0.93421    1.000
    Si1986   Si       0.31457    0.56362    0.89542    1.000
    Si1987   Si       0.32310    0.62420    0.92078    1.000
    N1988    N        0.28790    0.53231    0.97877    1.000
    N1989    N        0.30579    0.65989    0.89390    1.000
    Si1990   Si       0.32270    0.67375    0.98798    1.000
    Si1991   Si       0.33740    0.68813    0.88584    1.000
    Si1992   Si       0.29597    0.74671    0.91038    1.000
    N1993    N        0.30419    0.65112    0.95545    1.000
    N1994    N        0.31956    0.72741    0.87955    1.000
    N1995    N        0.30203    0.85408    0.04760    1.000
    Si1996   Si       0.33298    0.83446    0.02068    1.000
    N1997    N        0.30270    0.86717    0.11389    1.000
    N1998    N        0.30824    0.79990    0.11469    1.000
    N1999    N        0.28894    0.76101    0.04462    1.000
    Si2000   Si       0.30779    0.88707    0.07495    1.000
    N2001    N        0.33407    0.98011    0.04056    1.000
    Si2002   Si       0.31401    0.99769    0.12236    1.000
    Si2003   Si       0.33958    0.86661    0.13672    1.000
    N2004    N        0.32065    0.84768    0.17185    1.000
    N2005    N        0.32061    0.79592    0.21894    1.000
    Si2006   Si       0.29588    0.76312    0.13342    1.000
    Si2007   Si       0.29997    0.75900    0.21523    1.000
    N2008    N        0.29354    0.96664    0.14543    1.000
    Si2009   Si       0.29751    0.92453    0.13379    1.000
    Si2010   Si       0.30534    0.96998    0.23910    1.000
    N2011    N        0.34145    0.91018    0.14571    1.000
    N2012    N        0.30851    0.93229    0.21307    1.000
    N2013    N        0.32437    0.77241    0.28080    1.000
    N2014    N        0.31311    0.84668    0.34004    1.000
    Si2015   Si       0.29999    0.86839    0.30396    1.000
    Si2016   Si       0.32438    0.81148    0.25987    1.000
    N2017    N        0.29186    0.83534    0.27413    1.000
    Si2018   Si       0.28169    0.81466    0.34789    1.000
    N2019    N        0.31371    0.94157    0.34639    1.000
    N2020    N        0.29483    0.95284    0.27571    1.000
    Si2021   Si       0.32474    0.93620    0.30460    1.000
    N2022    N        0.33169    0.89486    0.29007    1.000
    Si2023   Si       0.28303    0.97652    0.35234    1.000
    N2024    N        0.30912    0.00504    0.32556    1.000
    N2025    N        0.29735    0.79707    0.38502    1.000
    N2026    N        0.29444    0.84106    0.44916    1.000
    Si2027   Si       0.31108    0.87688    0.43337    1.000
    Si2028   Si       0.31894    0.75948    0.38547    1.000
    Si2029   Si       0.28161    0.80859    0.42377    1.000
    Si2030   Si       0.33773    0.94485    0.45248    1.000
    N2031    N        0.31480    0.90905    0.46343    1.000
    N2032    N        0.30941    0.97671    0.46268    1.000
    N2033    N        0.29465    0.90530    0.40211    1.000
    N2034    N        0.30653    0.98900    0.39145    1.000
    Si2035   Si       0.33018    0.91980    0.38050    1.000
    Si2036   Si       0.31912    0.84548    0.53998    1.000
    N2037    N        0.30863    0.81043    0.51553    1.000
    Si2038   Si       0.30235    0.86681    0.60652    1.000
    Si2039   Si       0.30692    0.77008    0.53174    1.000
    N2040    N        0.30024    0.83442    0.57866    1.000
    N2041    N        0.29446    0.87266    0.51512    1.000
    N2042    N        0.29707    0.76472    0.57535    1.000
    Si2043   Si       0.31097    0.94142    0.57411    1.000
    N2044    N        0.32454    0.94235    0.53291    1.000
    Si2045   Si       0.30181    0.91396    0.50576    1.000
    N2046    N        0.29060    0.90392    0.58557    1.000
    N2047    N        0.33827    0.95538    0.60423    1.000
    N2048    N        0.30872    0.76719    0.66734    1.000
    Si2049   Si       0.29797    0.78749    0.70406    1.000
    N2050    N        0.33280    0.87014    0.69134    1.000
    Si2051   Si       0.29026    0.85883    0.68428    1.000
    Si2052   Si       0.34018    0.88211    0.73089    1.000
    N2053    N        0.28570    0.85076    0.64287    1.000
    Si2054   Si       0.33197    0.94873    0.64688    1.000
    N2055    N        0.33060    0.98896    0.66902    1.000
    N2056    N        0.28936    0.94416    0.65663    1.000
    Si2057   Si       0.28752    0.98672    0.66483    1.000
    N2058    N        0.32680    0.99745    0.73901    1.000
    Si2059   Si       0.30877    0.79504    0.80406    1.000
    N2060    N        0.30928    0.83835    0.81308    1.000
    N2061    N        0.33378    0.78922    0.84099    1.000
    N2062    N        0.33605    0.78303    0.77242    1.000
    Si2063   Si       0.30764    0.88052    0.79880    1.000
    N2064    N        0.30130    0.88303    0.75607    1.000
    Si2065   Si       0.34484    0.83092    0.83890    1.000
    Si2066   Si       0.32933    0.99368    0.82418    1.000
    N2067    N        0.32613    0.94082    0.85476    1.000
    Si2068   Si       0.31963    0.95719    0.75459    1.000
    N2069    N        0.33723    0.96089    0.79533    1.000
    N2070    N        0.28770    0.98718    0.83480    1.000
    Si2071   Si       0.31597    0.86281    0.90336    1.000
    Si2072   Si       0.33183    0.80472    0.94701    1.000
    N2073    N        0.31433    0.81606    0.98669    1.000
    N2074    N        0.30292    0.82493    0.92191    1.000
    N2075    N        0.33070    0.76572    0.92938    1.000
    N2076    N        0.33556    0.88980    0.93440    1.000
    Si2077   Si       0.29322    0.96307    0.94809    1.000
    Si2078   Si       0.30194    0.90279    0.96039    1.000
    N2079    N        0.31356    0.93978    0.98011    1.000
    N2080    N        0.32108    0.97912    0.92051    1.000
    Si2081   Si       0.34297    0.96725    0.88519    1.000
    N2082    N        0.36615    0.02664    0.07848    1.000
    Si2083   Si       0.37549    0.04841    0.04183    1.000
    N2084    N        0.37990    0.08941    0.05174    1.000
    Si2085   Si       0.39692    0.10554    0.08859    1.000
    Si2086   Si       0.34410    0.11618    0.05146    1.000
    Si2087   Si       0.37230    0.03656    0.12216    1.000
    N2088    N        0.36407    0.13536    0.08905    1.000
    Si2089   Si       0.35368    0.18583    0.02376    1.000
    Si2090   Si       0.36439    0.23972    0.07017    1.000
    N2091    N        0.34746    0.14208    0.01818    1.000
    N2092    N        0.39430    0.19652    0.01398    1.000
    N2093    N        0.34815    0.19919    0.06466    1.000
    N2094    N        0.34520    0.25908    0.10517    1.000
    N2095    N        0.39687    0.07591    0.12170    1.000
    N2096    N        0.39814    0.01876    0.19994    1.000
    N2097    N        0.35477    0.06143    0.23262    1.000
    Si2098   Si       0.39623    0.05633    0.22266    1.000
    Si2099   Si       0.36124    0.15635    0.20611    1.000
    Si2100   Si       0.37157    0.22735    0.21228    1.000
    N2101    N        0.39474    0.22736    0.17418    1.000
    N2102    N        0.39087    0.14162    0.23594    1.000
    N2103    N        0.35138    0.19339    0.13163    1.000
    Si2104   Si       0.39076    0.19225    0.14848    1.000
    N2105    N        0.39113    0.15701    0.17559    1.000
    N2106    N        0.37604    0.09762    0.29001    1.000
    N2107    N        0.36385    0.02605    0.29400    1.000
    Si2108   Si       0.39228    0.05845    0.29730    1.000
    Si2109   Si       0.34200    0.02855    0.25751    1.000
    N2110    N        0.39802    0.12029    0.35106    1.000
    Si2111   Si       0.40255    0.12903    0.27544    1.000
    Si2112   Si       0.35901    0.14052    0.35189    1.000
    Si2113   Si       0.39241    0.20027    0.28049    1.000
    N2114    N        0.38059    0.17788    0.36082    1.000
    Si2115   Si       0.36499    0.24366    0.31108    1.000
    N2116    N        0.35014    0.20781    0.29047    1.000
    N2117    N        0.34783    0.24709    0.35013    1.000
    Si2118   Si       0.35628    0.05773    0.41131    1.000
    N2119    N        0.35737    0.09038    0.43821    1.000
    N2120    N        0.35009    0.01962    0.43100    1.000
    Si2121   Si       0.38646    0.09112    0.47290    1.000
    N2122    N        0.39627    0.05782    0.39823    1.000
    N2123    N        0.38732    0.22979    0.40789    1.000
    N2124    N        0.37529    0.15503    0.42206    1.000
    Si2125   Si       0.39338    0.25150    0.48845    1.000
    Si2126   Si       0.36648    0.19090    0.39902    1.000
    Si2127   Si       0.35733    0.11523    0.54085    1.000
    N2128    N        0.36637    0.08307    0.51134    1.000
    N2129    N        0.38437    0.09994    0.57224    1.000
    Si2130   Si       0.36743    0.10478    0.61424    1.000
    N2131    N        0.35249    0.01394    0.50330    1.000
    Si2132   Si       0.39400    0.02961    0.50275    1.000
    N2133    N        0.37414    0.01915    0.61507    1.000
    N2134    N        0.36595    0.15564    0.52928    1.000
    Si2135   Si       0.38183    0.22221    0.59766    1.000
    N2136    N        0.38211    0.21103    0.50029    1.000
    Si2137   Si       0.39874    0.18426    0.52868    1.000
    Si2138   Si       0.34507    0.18696    0.50222    1.000
    N2139    N        0.36072    0.08426    0.73607    1.000
    Si2140   Si       0.39222    0.05461    0.72432    1.000
    Si2141   Si       0.38753    0.04051    0.64928    1.000
    N2142    N        0.37321    0.03773    0.68938    1.000
    N2143    N        0.39554    0.08163    0.63834    1.000
    N2144    N        0.36377    0.14579    0.63076    1.000
    Si2145   Si       0.39868    0.18063    0.71475    1.000
    N2146    N        0.38182    0.21673    0.69990    1.000
    N2147    N        0.36187    0.15532    0.71714    1.000
    Si2148   Si       0.35839    0.09462    0.77758    1.000
    N2149    N        0.39232    0.07165    0.79235    1.000
    N2150    N        0.39456    0.11748    0.84451    1.000
    N2151    N        0.34484    0.07163    0.86957    1.000
    N2152    N        0.40153    0.02075    0.75085    1.000
    N2153    N        0.37938    0.13163    0.78343    1.000
    N2154    N        0.37597    0.24701    0.81909    1.000
    Si2155   Si       0.38932    0.17373    0.78445    1.000
    N2156    N        0.34930    0.19009    0.77943    1.000
    Si2157   Si       0.36672    0.10727    0.87720    1.000
    Si2158   Si       0.38909    0.06890    0.94437    1.000
    Si2159   Si       0.36788    0.03716    0.88153    1.000
    N2160    N        0.38871    0.09829    0.91275    1.000
    N2161    N        0.36107    0.08690    0.97294    1.000
    N2162    N        0.37328    0.03342    0.92465    1.000
    Si2163   Si       0.35605    0.13185    0.97666    1.000
    N2164    N        0.35217    0.20857    0.91557    1.000
    Si2165   Si       0.39723    0.20539    0.91074    1.000
    N2166    N        0.39439    0.14681    0.96020    1.000
    Si2167   Si       0.38761    0.28724    0.01993    1.000
    N2168    N        0.37510    0.37691    0.05039    1.000
    Si2169   Si       0.34665    0.29941    0.11593    1.000
    N2170    N        0.36657    0.38457    0.11440    1.000
    N2171    N        0.35379    0.26038    0.03257    1.000
    Si2172   Si       0.37669    0.42093    0.04119    1.000
    N2173    N        0.39609    0.43597    0.07913    1.000
    Si2174   Si       0.39450    0.47025    0.10361    1.000
    N2175    N        0.39843    0.42754    0.00443    1.000
    N2176    N        0.39555    0.50823    0.07729    1.000
    N2177    N        0.39044    0.30711    0.11825    1.000
    N2178    N        0.38644    0.36160    0.18023    1.000
    N2179    N        0.35581    0.26562    0.22623    1.000
    Si2180   Si       0.37468    0.36917    0.22086    1.000
    Si2181   Si       0.38602    0.32286    0.16023    1.000
    Si2182   Si       0.37965    0.39515    0.15353    1.000
    N2183    N        0.34953    0.41836    0.17339    1.000
    N2184    N        0.36579    0.47488    0.13591    1.000
    N2185    N        0.39277    0.40000    0.24739    1.000
    Si2186   Si       0.37067    0.45763    0.17659    1.000
    N2187    N        0.36654    0.28606    0.29538    1.000
    Si2188   Si       0.37617    0.29417    0.25419    1.000
    Si2189   Si       0.36157    0.35856    0.33562    1.000
    Si2190   Si       0.39306    0.37247    0.28195    1.000
    N2191    N        0.39684    0.29200    0.36417    1.000
    N2192    N        0.35310    0.37803    0.29693    1.000
    N2193    N        0.38776    0.33662    0.24414    1.000
    N2194    N        0.37230    0.38012    0.37035    1.000
    N2195    N        0.37799    0.45556    0.32658    1.000
    N2196    N        0.35727    0.50169    0.27563    1.000
    Si2197   Si       0.34912    0.48106    0.31175    1.000
    Si2198   Si       0.39670    0.50654    0.25814    1.000
    N2199    N        0.39439    0.33851    0.49137    1.000
    Si2200   Si       0.37141    0.26308    0.38383    1.000
    N2201    N        0.36792    0.27981    0.46680    1.000
    N2202    N        0.38758    0.35159    0.43226    1.000
    Si2203   Si       0.39260    0.31567    0.45440    1.000
    N2204    N        0.34161    0.28738    0.40748    1.000
    Si2205   Si       0.38200    0.43225    0.44065    1.000
    Si2206   Si       0.35229    0.49624    0.44553    1.000
    N2207    N        0.38245    0.40927    0.47998    1.000
    N2208    N        0.39017    0.47373    0.43609    1.000
    N2209    N        0.34101    0.46135    0.47211    1.000
    N2210    N        0.34380    0.42011    0.42025    1.000
    Si2211   Si       0.37181    0.30185    0.59057    1.000
    N2212    N        0.38994    0.26349    0.59033    1.000
    N2213    N        0.39680    0.37906    0.61626    1.000
    N2214    N        0.39504    0.33132    0.56669    1.000
    N2215    N        0.34920    0.42338    0.60161    1.000
    Si2216   Si       0.37792    0.40242    0.52305    1.000
    N2217    N        0.38009    0.44350    0.53963    1.000
    Si2218   Si       0.36070    0.46901    0.50992    1.000
    N2219    N        0.38698    0.50267    0.50474    1.000
    Si2220   Si       0.36651    0.29029    0.66449    1.000
    N2221    N        0.37122    0.31792    0.63222    1.000
    N2222    N        0.36146    0.31879    0.69916    1.000
    Si2223   Si       0.39180    0.34366    0.71722    1.000
    N2224    N        0.39146    0.37693    0.68872    1.000
    Si2225   Si       0.39397    0.35106    0.64901    1.000
    Si2226   Si       0.38653    0.42319    0.62190    1.000
    Si2227   Si       0.35418    0.39974    0.69778    1.000
    N2228    N        0.38403    0.45455    0.65226    1.000
    N2229    N        0.34170    0.49208    0.70279    1.000
    N2230    N        0.35975    0.41620    0.73746    1.000
    Si2231   Si       0.34467    0.46528    0.66713    1.000
    Si2232   Si       0.37895    0.50999    0.72469    1.000
    Si2233   Si       0.36679    0.35041    0.79514    1.000
    N2234    N        0.35311    0.31119    0.80623    1.000
    Si2235   Si       0.38776    0.28778    0.81801    1.000
    N2236    N        0.38648    0.36660    0.82784    1.000
    Si2237   Si       0.39434    0.34319    0.86518    1.000
    N2238    N        0.38799    0.36064    0.75794    1.000
    N2239    N        0.39837    0.30012    0.85886    1.000
    N2240    N        0.37795    0.43024    0.80263    1.000
    Si2241   Si       0.38148    0.40801    0.83963    1.000
    Si2242   Si       0.37173    0.46923    0.78657    1.000
    N2243    N        0.38847    0.49860    0.81440    1.000
    Si2244   Si       0.38871    0.40549    0.76769    1.000
    N2245    N        0.39390    0.47775    0.75059    1.000
    N2246    N        0.34378    0.41490    0.85997    1.000
    N2247    N        0.35282    0.27634    0.90319    1.000
    N2248    N        0.35396    0.34820    0.88450    1.000
    Si2249   Si       0.39422    0.27425    0.89268    1.000
    N2250    N        0.39753    0.37449    0.95473    1.000
    N2251    N        0.37523    0.31800    0.99057    1.000
    N2252    N        0.38227    0.47034    0.87944    1.000
    Si2253   Si       0.36277    0.47146    0.93078    1.000
    Si2254   Si       0.38056    0.50487    0.98264    1.000
    N2255    N        0.39367    0.50286    0.93870    1.000
    Si2256   Si       0.38214    0.41151    0.96727    1.000
    N2257    N        0.35168    0.47342    0.97222    1.000
    N2258    N        0.38776    0.43382    0.93017    1.000
    Si2259   Si       0.37423    0.61265    0.10248    1.000
    N2260    N        0.36333    0.62318    0.06232    1.000
    Si2261   Si       0.37899    0.54441    0.09003    1.000
    N2262    N        0.37124    0.61103    0.00392    1.000
    N2263    N        0.39985    0.57824    0.10360    1.000
    Si2264   Si       0.39500    0.63267    0.03402    1.000
    N2265    N        0.35773    0.73202    0.04217    1.000
    Si2266   Si       0.38250    0.70702    0.01450    1.000
    N2267    N        0.39002    0.71306    0.10391    1.000
    Si2268   Si       0.38591    0.74464    0.07314    1.000
    N2269    N        0.39647    0.67545    0.04193    1.000
    N2270    N        0.39750    0.64714    0.11377    1.000
    Si2271   Si       0.34944    0.57723    0.16308    1.000
    Si2272   Si       0.35183    0.52139    0.20649    1.000
    N2273    N        0.39109    0.52949    0.22260    1.000
    Si2274   Si       0.36350    0.62587    0.21421    1.000
    N2275    N        0.39137    0.57286    0.16992    1.000
    N2276    N        0.39540    0.60250    0.23062    1.000
    N2277    N        0.34236    0.59677    0.12652    1.000
    N2278    N        0.38304    0.74330    0.23891    1.000
    N2279    N        0.37959    0.64480    0.17894    1.000
    N2280    N        0.36782    0.71146    0.16849    1.000
    Si2281   Si       0.39369    0.72784    0.19914    1.000
    Si2282   Si       0.36518    0.73959    0.13402    1.000
    Si2283   Si       0.35019    0.67160    0.16184    1.000
    N2284    N        0.36068    0.56579    0.29313    1.000
    Si2285   Si       0.34987    0.56196    0.34025    1.000
    N2286    N        0.39530    0.56893    0.34486    1.000
    N2287    N        0.34553    0.51424    0.33995    1.000
    N2288    N        0.35788    0.65333    0.32429    1.000
    Si2289   Si       0.36544    0.66978    0.28457    1.000
    Si2290   Si       0.36934    0.73381    0.33122    1.000
    Si2291   Si       0.38794    0.66236    0.35771    1.000
    N2292    N        0.35855    0.71210    0.29383    1.000
    N2293    N        0.39257    0.70632    0.35411    1.000
    Si2294   Si       0.34517    0.73695    0.26079    1.000
    N2295    N        0.34924    0.65607    0.24516    1.000
    N2296    N        0.35859    0.60386    0.43562    1.000
    N2297    N        0.36684    0.53644    0.44939    1.000
    Si2298   Si       0.36865    0.56547    0.41680    1.000
    Si2299   Si       0.39549    0.61037    0.46443    1.000
    Si2300   Si       0.37606    0.54362    0.49171    1.000
    N2301    N        0.37067    0.71115    0.44787    1.000
    Si2302   Si       0.39211    0.67900    0.42615    1.000
    N2303    N        0.39560    0.65496    0.46325    1.000
    Si2304   Si       0.37470    0.68683    0.48476    1.000
    N2305    N        0.36724    0.65839    0.39676    1.000
    Si2306   Si       0.38163    0.75315    0.44036    1.000
    N2307    N        0.38604    0.58519    0.56557    1.000
    N2308    N        0.38865    0.51753    0.56839    1.000
    Si2309   Si       0.35697    0.59137    0.53330    1.000
    Si2310   Si       0.34607    0.52119    0.55294    1.000
    Si2311   Si       0.39928    0.55202    0.59097    1.000
    N2312    N        0.38471    0.58523    0.49583    1.000
    N2313    N        0.38611    0.64722    0.54235    1.000
    N2314    N        0.36689    0.74256    0.59860    1.000
    Si2315   Si       0.38353    0.73411    0.55434    1.000
    Si2316   Si       0.39027    0.68380    0.61304    1.000
    N2317    N        0.34260    0.74514    0.53933    1.000
    N2318    N        0.39768    0.70944    0.51248    1.000
    Si2319   Si       0.36461    0.63029    0.63564    1.000
    Si2320   Si       0.38841    0.57013    0.66709    1.000
    N2321    N        0.38567    0.61424    0.67096    1.000
    N2322    N        0.38489    0.61415    0.73922    1.000
    N2323    N        0.37783    0.55596    0.62783    1.000
    N2324    N        0.36795    0.55247    0.70018    1.000
    Si2325   Si       0.38224    0.56957    0.73788    1.000
    N2326    N        0.36001    0.73011    0.67763    1.000
    N2327    N        0.35624    0.67458    0.63973    1.000
    N2328    N        0.39682    0.67373    0.71020    1.000
    Si2329   Si       0.40011    0.74934    0.62680    1.000
    Si2330   Si       0.37145    0.53768    0.80336    1.000
    N2331    N        0.36799    0.53586    0.76046    1.000
    N2332    N        0.36006    0.61514    0.81505    1.000
    Si2333   Si       0.35980    0.62279    0.77244    1.000
    Si2334   Si       0.38327    0.63401    0.84639    1.000
    N2335    N        0.36148    0.67046    0.85351    1.000
    N2336    N        0.36228    0.66608    0.77956    1.000
    N2337    N        0.38051    0.72848    0.75497    1.000
    Si2338   Si       0.39267    0.68518    0.75275    1.000
    Si2339   Si       0.34091    0.73601    0.76997    1.000
    Si2340   Si       0.34261    0.68224    0.81381    1.000
    N2341    N        0.34197    0.72571    0.81262    1.000
    N2342    N        0.39297    0.60157    0.87386    1.000
    N2343    N        0.39594    0.57292    0.93801    1.000
    Si2344   Si       0.38576    0.57781    0.98162    1.000
    Si2345   Si       0.38867    0.53790    0.91130    1.000
    Si2346   Si       0.39724    0.61023    0.91495    1.000
    N2347    N        0.34665    0.53707    0.90319    1.000
    N2348    N        0.36088    0.54271    0.99335    1.000
    N2349    N        0.36462    0.63496    0.93099    1.000
    N2350    N        0.36323    0.69984    0.91902    1.000
    N2351    N        0.38142    0.74278    0.86883    1.000
    N2352    N        0.36353    0.68262    0.98416    1.000
    Si2353   Si       0.38125    0.67250    0.94625    1.000
    Si2354   Si       0.36545    0.74270    0.91225    1.000
    N2355    N        0.37046    0.85660    0.01781    1.000
    N2356    N        0.37268    0.77245    0.10389    1.000
    N2357    N        0.35072    0.80858    0.05396    1.000
    Si2358   Si       0.38958    0.82172    0.03598    1.000
    Si2359   Si       0.34726    0.80578    0.09570    1.000
    Si2360   Si       0.37327    0.89623    0.03254    1.000
    Si2361   Si       0.36362    0.98438    0.07182    1.000
    N2362    N        0.37930    0.93512    0.01177    1.000
    N2363    N        0.35083    0.97281    0.11187    1.000
    N2364    N        0.34507    0.90169    0.06493    1.000
    Si2365   Si       0.34548    0.95980    0.00363    1.000
    N2366    N        0.36718    0.83715    0.11786    1.000
    Si2367   Si       0.39537    0.86461    0.20259    1.000
    N2368    N        0.38553    0.82483    0.19126    1.000
    N2369    N        0.36107    0.77557    0.16467    1.000
    Si2370   Si       0.34344    0.81317    0.18553    1.000
    N2371    N        0.36186    0.88989    0.21972    1.000
    Si2372   Si       0.37105    0.94679    0.14111    1.000
    N2373    N        0.37042    0.95247    0.18409    1.000
    N2374    N        0.34298    0.99155    0.23554    1.000
    Si2375   Si       0.34547    0.91851    0.19192    1.000
    Si2376   Si       0.38028    0.98091    0.21621    1.000
    N2377    N        0.36398    0.83625    0.26292    1.000
    N2378    N        0.39110    0.76900    0.31356    1.000
    N2379    N        0.37914    0.82264    0.36421    1.000
    Si2380   Si       0.34514    0.85243    0.36778    1.000
    Si2381   Si       0.36209    0.88176    0.26193    1.000
    N2382    N        0.36290    0.95904    0.30265    1.000
    Si2383   Si       0.35143    0.99520    0.32251    1.000
    N2384    N        0.37477    0.99301    0.36424    1.000
    N2385    N        0.36108    0.89484    0.36192    1.000
    N2386    N        0.39714    0.90344    0.28088    1.000
    Si2387   Si       0.38482    0.86144    0.43277    1.000
    N2388    N        0.38112    0.87616    0.47240    1.000
    N2389    N        0.34608    0.86078    0.41354    1.000
    N2390    N        0.40128    0.76710    0.47335    1.000
    N2391    N        0.34302    0.76138    0.42192    1.000
    N2392    N        0.35027    0.94702    0.41160    1.000
    Si2393   Si       0.34902    0.98747    0.39840    1.000
    N2394    N        0.36697    0.94518    0.48313    1.000
    Si2395   Si       0.39667    0.91460    0.48057    1.000
    Si2396   Si       0.37508    0.86407    0.58267    1.000
    N2397    N        0.35973    0.85546    0.54316    1.000
    Si2398   Si       0.38877    0.85938    0.51095    1.000
    N2399    N        0.34517    0.87111    0.61410    1.000
    N2400    N        0.39678    0.82705    0.59104    1.000
    N2401    N        0.37815    0.97655    0.55543    1.000
    Si2402   Si       0.37224    0.97987    0.59839    1.000
    Si2403   Si       0.35334    0.97192    0.51864    1.000
    Si2404   Si       0.35116    0.77231    0.67158    1.000
    N2405    N        0.38482    0.78330    0.64940    1.000
    N2406    N        0.39537    0.85410    0.65846    1.000
    Si2407   Si       0.35726    0.87497    0.65638    1.000
    N2408    N        0.34013    0.79656    0.70787    1.000
    N2409    N        0.34089    0.92669    0.72897    1.000
    Si2410   Si       0.37299    0.93298    0.69904    1.000
    N2411    N        0.36627    0.92051    0.65550    1.000
    Si2412   Si       0.35201    0.00143    0.70437    1.000
    N2413    N        0.38709    0.97329    0.70477    1.000
    N2414    N        0.39970    0.89983    0.71337    1.000
    N2415    N        0.38123    0.83299    0.81657    1.000
    Si2416   Si       0.37971    0.86450    0.78735    1.000
    N2417    N        0.36131    0.84963    0.75039    1.000
    Si2418   Si       0.35968    0.80712    0.74452    1.000
    Si2419   Si       0.35548    0.93124    0.82255    1.000
    N2420    N        0.35005    0.89155    0.80734    1.000
    N2421    N        0.35418    0.00260    0.86187    1.000
    N2422    N        0.39777    0.94270    0.83161    1.000
    N2423    N        0.37174    0.82235    0.94315    1.000
    Si2424   Si       0.38087    0.84062    0.90480    1.000
    N2425    N        0.34842    0.84702    0.87765    1.000
    N2426    N        0.36748    0.98005    0.97110    1.000
    Si2427   Si       0.37401    0.90878    0.92453    1.000
    N2428    N        0.37565    0.94248    0.89805    1.000
    Si2429   Si       0.34480    0.00646    0.94636    1.000
    N2430    N        0.43684    0.11899    0.08595    1.000
    N2431    N        0.45274    0.09150    0.02015    1.000
    N2432    N        0.40929    0.03666    0.01986    1.000
    Si2433   Si       0.44152    0.05462    0.00097    1.000
    Si2434   Si       0.43888    0.22220    0.10051    1.000
    Si2435   Si       0.41850    0.22705    0.03088    1.000
    Si2436   Si       0.44929    0.15065    0.11610    1.000
    N2437    N        0.40936    0.24200    0.07121    1.000
    N2438    N        0.45904    0.21609    0.02948    1.000
    N2439    N        0.42332    0.18548    0.11864    1.000
    Si2440   Si       0.42844    0.01122    0.16720    1.000
    N2441    N        0.45295    0.04543    0.15826    1.000
    N2442    N        0.44874    0.12227    0.15029    1.000
    Si2443   Si       0.42856    0.08140    0.15173    1.000
    N2444    N        0.41056    0.08550    0.19205    1.000
    Si2445   Si       0.41496    0.12886    0.20075    1.000
    Si2446   Si       0.43721    0.24391    0.24148    1.000
    Si2447   Si       0.42686    0.25681    0.17043    1.000
    N2448    N        0.43496    0.25472    0.12865    1.000
    N2449    N        0.45590    0.24672    0.20297    1.000
    N2450    N        0.40154    0.21931    0.24354    1.000
    N2451    N        0.45561    0.13847    0.21130    1.000
    N2452    N        0.41602    0.05044    0.26104    1.000
    N2453    N        0.41523    0.05576    0.33440    1.000
    N2454    N        0.44059    0.11039    0.27226    1.000
    Si2455   Si       0.45716    0.06697    0.27613    1.000
    Si2456   Si       0.45521    0.04329    0.34515    1.000
    Si2457   Si       0.41659    0.08805    0.37238    1.000
    N2458    N        0.46035    0.08331    0.36578    1.000
    N2459    N        0.40891    0.16459    0.29786    1.000
    Si2460   Si       0.41631    0.15969    0.33927    1.000
    Si2461   Si       0.44603    0.24210    0.31147    1.000
    N2462    N        0.40534    0.22884    0.30986    1.000
    N2463    N        0.45962    0.15098    0.34143    1.000
    N2464    N        0.41404    0.12551    0.47280    1.000
    Si2465   Si       0.41844    0.03668    0.42975    1.000
    N2466    N        0.42840    0.11249    0.40893    1.000
    N2467    N        0.40612    0.05359    0.46890    1.000
    N2468    N        0.43909    0.18132    0.43431    1.000
    Si2469   Si       0.42321    0.22100    0.42829    1.000
    N2470    N        0.42950    0.24397    0.46572    1.000
    Si2471   Si       0.41546    0.14419    0.43433    1.000
    Si2472   Si       0.41605    0.07545    0.55327    1.000
    N2473    N        0.44445    0.09276    0.52427    1.000
    N2474    N        0.44470    0.07091    0.58779    1.000
    N2475    N        0.40983    0.03320    0.54255    1.000
    Si2476   Si       0.44592    0.13060    0.50129    1.000
    N2477    N        0.43811    0.16554    0.52777    1.000
    Si2478   Si       0.41708    0.25004    0.55826    1.000
    N2479    N        0.40501    0.20819    0.56444    1.000
    N2480    N        0.43330    0.14054    0.61732    1.000
    Si2481   Si       0.43424    0.09718    0.62299    1.000
    Si2482   Si       0.45058    0.05522    0.68253    1.000
    N2483    N        0.43188    0.07151    0.71851    1.000
    N2484    N        0.42883    0.02562    0.65863    1.000
    Si2485   Si       0.41142    0.22874    0.66898    1.000
    N2486    N        0.45016    0.21743    0.68344    1.000
    Si2487   Si       0.45820    0.17565    0.68344    1.000
    Si2488   Si       0.40249    0.16258    0.63974    1.000
    N2489    N        0.41672    0.16239    0.67973    1.000
    N2490    N        0.40120    0.20676    0.63393    1.000
    Si2491   Si       0.41946    0.03814    0.78588    1.000
    Si2492   Si       0.43562    0.01970    0.85088    1.000
    N2493    N        0.44568    0.11968    0.77960    1.000
    Si2494   Si       0.41077    0.10867    0.80452    1.000
    N2495    N        0.40634    0.04778    0.86506    1.000
    Si2496   Si       0.45733    0.08932    0.74897    1.000
    N2497    N        0.44624    0.23909    0.81785    1.000
    Si2498   Si       0.41355    0.15575    0.85420    1.000
    Si2499   Si       0.40938    0.22766    0.83624    1.000
    N2500    N        0.41894    0.18733    0.75293    1.000
    N2501    N        0.40619    0.18591    0.82379    1.000
    N2502    N        0.45373    0.14381    0.84524    1.000
    N2503    N        0.43045    0.06661    0.95996    1.000
    N2504    N        0.45216    0.11551    0.91312    1.000
    Si2505   Si       0.41407    0.13365    0.92258    1.000
    N2506    N        0.44834    0.15731    0.99904    1.000
    Si2507   Si       0.41506    0.17811    0.98051    1.000
    Si2508   Si       0.43021    0.25251    0.96268    1.000
    N2509    N        0.41824    0.21192    0.94963    1.000
    N2510    N        0.40616    0.23518    0.87913    1.000
    N2511    N        0.40705    0.16657    0.89549    1.000
    N2512    N        0.43193    0.35221    0.01503    1.000
    N2513    N        0.43033    0.36735    0.08683    1.000
    Si2514   Si       0.41668    0.28600    0.09273    1.000
    Si2515   Si       0.40861    0.34963    0.05430    1.000
    N2516    N        0.45833    0.30390    0.09672    1.000
    N2517    N        0.40207    0.30697    0.05575    1.000
    N2518    N        0.41624    0.26094    0.00270    1.000
    N2519    N        0.41425    0.49548    0.00960    1.000
    Si2520   Si       0.43140    0.45753    0.00212    1.000
    Si2521   Si       0.40669    0.40128    0.09996    1.000
    Si2522   Si       0.45765    0.50596    0.11272    1.000
    N2523    N        0.46067    0.49530    0.07061    1.000
    N2524    N        0.41392    0.29938    0.18072    1.000
    Si2525   Si       0.42143    0.31790    0.21939    1.000
    N2526    N        0.45874    0.33523    0.21552    1.000
    Si2527   Si       0.43752    0.44708    0.16362    1.000
    N2528    N        0.40941    0.45273    0.19766    1.000
    N2529    N        0.43139    0.47567    0.12978    1.000
    N2530    N        0.41595    0.41278    0.14191    1.000
    Si2531   Si       0.41865    0.43338    0.23634    1.000
    N2532    N        0.45802    0.41556    0.23220    1.000
    Si2533   Si       0.43792    0.37021    0.33689    1.000
    N2534    N        0.44224    0.28451    0.31409    1.000
    N2535    N        0.40164    0.34426    0.31807    1.000
    Si2536   Si       0.40076    0.30176    0.32116    1.000
    N2537    N        0.41823    0.28233    0.24536    1.000
    N2538    N        0.44928    0.46582    0.32634    1.000
    Si2539   Si       0.41591    0.44340    0.30931    1.000
    N2540    N        0.42122    0.40173    0.30555    1.000
    N2541    N        0.41661    0.46366    0.26940    1.000
    Si2542   Si       0.44762    0.49196    0.29071    1.000
    Si2543   Si       0.45568    0.27123    0.43813    1.000
    N2544    N        0.43465    0.35356    0.38004    1.000
    N2545    N        0.42394    0.29864    0.42958    1.000
    Si2546   Si       0.42739    0.31064    0.38815    1.000
    Si2547   Si       0.40522    0.37453    0.46637    1.000
    Si2548   Si       0.40214    0.37597    0.40014    1.000
    N2549    N        0.44615    0.38679    0.48024    1.000
    N2550    N        0.41575    0.40752    0.42679    1.000
    N2551    N        0.45535    0.45903    0.45448    1.000
    Si2552   Si       0.43086    0.49162    0.43730    1.000
    N2553    N        0.43950    0.49926    0.39604    1.000
    Si2554   Si       0.45391    0.41518    0.44906    1.000
    Si2555   Si       0.41835    0.36617    0.58061    1.000
    Si2556   Si       0.40928    0.31879    0.52747    1.000
    N2557    N        0.45067    0.33427    0.52803    1.000
    Si2558   Si       0.44944    0.37587    0.52218    1.000
    N2559    N        0.40452    0.27400    0.52529    1.000
    N2560    N        0.45911    0.35945    0.59702    1.000
    N2561    N        0.44242    0.46793    0.54282    1.000
    N2562    N        0.41751    0.39217    0.54322    1.000
    N2563    N        0.42302    0.43369    0.59827    1.000
    Si2564   Si       0.41909    0.43608    0.55638    1.000
    Si2565   Si       0.41513    0.50260    0.53858    1.000
    N2566    N        0.43281    0.33290    0.65550    1.000
    Si2567   Si       0.43712    0.30027    0.68383    1.000
    N2568    N        0.42606    0.31852    0.72147    1.000
    N2569    N        0.40636    0.27179    0.66862    1.000
    N2570    N        0.45943    0.38142    0.71722    1.000
    N2571    N        0.45158    0.40121    0.65276    1.000
    Si2572   Si       0.45798    0.43469    0.62352    1.000
    N2573    N        0.45273    0.47547    0.63985    1.000
    N2574    N        0.41323    0.50359    0.69610    1.000
    Si2575   Si       0.42968    0.39905    0.69099    1.000
    N2576    N        0.43017    0.44192    0.70045    1.000
    Si2577   Si       0.42002    0.47141    0.66815    1.000
    Si2578   Si       0.43089    0.45799    0.74234    1.000
    N2579    N        0.41937    0.29477    0.78717    1.000
    Si2580   Si       0.44248    0.32215    0.76271    1.000
    N2581    N        0.46123    0.35928    0.78215    1.000
    N2582    N        0.43002    0.41994    0.76201    1.000
    N2583    N        0.44785    0.48476    0.83347    1.000
    N2584    N        0.41596    0.41464    0.86208    1.000
    Si2585   Si       0.40984    0.49418    0.85386    1.000
    N2586    N        0.44464    0.33700    0.95732    1.000
    N2587    N        0.43051    0.35364    0.88782    1.000
    Si2588   Si       0.43315    0.37065    0.92937    1.000
    N2589    N        0.41801    0.28054    0.92969    1.000
    Si2590   Si       0.40775    0.34293    0.98204    1.000
    Si2591   Si       0.45681    0.30054    0.93935    1.000
    Si2592   Si       0.45218    0.39345    0.87290    1.000
    N2593    N        0.44914    0.40868    0.91601    1.000
    N2594    N        0.44406    0.47438    0.89612    1.000
    Si2595   Si       0.41663    0.44095    0.89845    1.000
    Si2596   Si       0.43985    0.49377    0.93296    1.000
    N2597    N        0.44748    0.46119    0.96163    1.000
    N2598    N        0.43761    0.55468    0.04817    1.000
    Si2599   Si       0.45053    0.58866    0.02586    1.000
    N2600    N        0.43834    0.62848    0.04380    1.000
    Si2601   Si       0.42684    0.51255    0.04643    1.000
    N2602    N        0.45176    0.68862    0.08160    1.000
    N2603    N        0.42548    0.74888    0.05801    1.000
    Si2604   Si       0.40985    0.67949    0.08811    1.000
    Si2605   Si       0.45986    0.73285    0.07857    1.000
    Si2606   Si       0.46306    0.66578    0.04554    1.000
    Si2607   Si       0.42815    0.76181    0.01657    1.000
    Si2608   Si       0.41014    0.56678    0.20862    1.000
    N2609    N        0.45480    0.56731    0.20546    1.000
    N2610    N        0.44201    0.61357    0.14744    1.000
    Si2611   Si       0.42233    0.57495    0.13977    1.000
    N2612    N        0.45048    0.54135    0.13909    1.000
    N2613    N        0.41866    0.69428    0.21478    1.000
    Si2614   Si       0.41650    0.64733    0.15510    1.000
    N2615    N        0.44692    0.67806    0.15672    1.000
    N2616    N        0.42224    0.75160    0.17597    1.000
    Si2617   Si       0.46051    0.68535    0.19934    1.000
    N2618    N        0.41992    0.52556    0.28849    1.000
    N2619    N        0.42636    0.59597    0.29459    1.000
    Si2620   Si       0.41968    0.62262    0.25940    1.000
    Si2621   Si       0.40201    0.56220    0.30247    1.000
    N2622    N        0.42056    0.63576    0.36398    1.000
    N2623    N        0.43650    0.72701    0.28422    1.000
    N2624    N        0.40748    0.66074    0.27462    1.000
    Si2625   Si       0.42869    0.69304    0.25669    1.000
    Si2626   Si       0.42309    0.59225    0.37120    1.000
    N2627    N        0.44087    0.52815    0.46373    1.000
    N2628    N        0.43908    0.60243    0.45873    1.000
    N2629    N        0.41106    0.57183    0.40757    1.000
    Si2630   Si       0.44266    0.56222    0.43739    1.000
    N2631    N        0.42907    0.69540    0.41160    1.000
    N2632    N        0.45983    0.73401    0.48856    1.000
    Si2633   Si       0.42267    0.72652    0.37999    1.000
    N2634    N        0.44212    0.55568    0.59917    1.000
    N2635    N        0.44389    0.53517    0.53353    1.000
    N2636    N        0.44955    0.62820    0.57376    1.000
    Si2637   Si       0.40663    0.62093    0.56942    1.000
    Si2638   Si       0.44662    0.63924    0.61641    1.000
    Si2639   Si       0.41645    0.67912    0.53730    1.000
    Si2640   Si       0.42172    0.74620    0.50491    1.000
    N2641    N        0.40459    0.69856    0.57415    1.000
    N2642    N        0.45814    0.67587    0.52543    1.000
    N2643    N        0.40160    0.64101    0.60991    1.000
    Si2644   Si       0.45936    0.56956    0.63841    1.000
    N2645    N        0.42654    0.55726    0.74109    1.000
    N2646    N        0.43162    0.56146    0.66990    1.000
    Si2647   Si       0.43943    0.53742    0.70637    1.000
    N2648    N        0.44940    0.62650    0.71297    1.000
    Si2649   Si       0.40679    0.63192    0.70581    1.000
    Si2650   Si       0.39825    0.70914    0.68617    1.000
    Si2651   Si       0.41225    0.75316    0.74135    1.000
    N2652    N        0.41260    0.70827    0.64211    1.000
    N2653    N        0.42686    0.73603    0.70482    1.000
    Si2654   Si       0.44179    0.56622    0.77995    1.000
    Si2655   Si       0.41621    0.57166    0.85221    1.000
    N2656    N        0.44814    0.60859    0.78415    1.000
    N2657    N        0.40711    0.56492    0.80908    1.000
    N2658    N        0.45427    0.59110    0.85010    1.000
    Si2659   Si       0.45502    0.62267    0.82282    1.000
    N2660    N        0.42338    0.64720    0.83803    1.000
    N2661    N        0.43438    0.67792    0.76592    1.000
    N2662    N        0.44172    0.71309    0.82634    1.000
    Si2663   Si       0.41853    0.74494    0.84936    1.000
    N2664    N        0.44707    0.75079    0.76818    1.000
    Si2665   Si       0.45140    0.67844    0.84792    1.000
    Si2666   Si       0.45615    0.71122    0.78549    1.000
    Si2667   Si       0.45452    0.63953    0.75332    1.000
    N2668    N        0.41067    0.53227    0.87415    1.000
    N2669    N        0.44402    0.61294    0.91986    1.000
    Si2670   Si       0.44427    0.57847    0.95054    1.000
    N2671    N        0.42745    0.58331    0.99010    1.000
    N2672    N        0.45442    0.53376    0.93520    1.000
    Si2673   Si       0.44259    0.70376    0.97188    1.000
    N2674    N        0.44794    0.75594    0.88130    1.000
    N2675    N        0.42456    0.67449    0.94639    1.000
    Si2676   Si       0.45671    0.65769    0.92058    1.000
    N2677    N        0.45502    0.68768    0.88951    1.000
    N2678    N        0.41384    0.72790    0.99345    1.000
    N2679    N        0.41713    0.82938    0.06780    1.000
    Si2680   Si       0.43623    0.86846    0.06863    1.000
    Si2681   Si       0.41230    0.83358    0.11230    1.000
    N2682    N        0.42840    0.87371    0.11122    1.000
    N2683    N        0.40457    0.79440    0.00370    1.000
    N2684    N        0.40311    0.96756    0.06936    1.000
    Si2685   Si       0.42031    0.97429    0.10968    1.000
    Si2686   Si       0.42364    0.94093    0.04043    1.000
    N2687    N        0.41668    0.89625    0.04220    1.000
    N2688    N        0.43916    0.95912    0.00284    1.000
    N2689    N        0.43344    0.81451    0.14547    1.000
    N2690    N        0.42459    0.85840    0.23351    1.000
    Si2691   Si       0.40184    0.79145    0.16771    1.000
    N2692    N        0.40224    0.00589    0.13324    1.000
    Si2693   Si       0.45387    0.88369    0.20837    1.000
    N2694    N        0.40934    0.96251    0.24284    1.000
    Si2695   Si       0.45045    0.96147    0.22515    1.000
    N2696    N        0.42125    0.88751    0.17862    1.000
    N2697    N        0.44975    0.97940    0.18527    1.000
    Si2698   Si       0.43556    0.90373    0.14110    1.000
    N2699    N        0.41070    0.93713    0.12958    1.000
    N2700    N        0.43549    0.80019    0.36206    1.000
    N2701    N        0.42962    0.79316    0.25951    1.000
    N2702    N        0.41531    0.83989    0.30431    1.000
    Si2703   Si       0.40754    0.83050    0.26216    1.000
    Si2704   Si       0.42833    0.88099    0.30062    1.000
    Si2705   Si       0.40331    0.80711    0.33179    1.000
    Si2706   Si       0.40887    0.75805    0.27311    1.000
    Si2707   Si       0.45055    0.93099    0.34150    1.000
    N2708    N        0.43236    0.88900    0.34386    1.000
    N2709    N        0.43649    0.95481    0.30606    1.000
    Si2710   Si       0.40005    0.94833    0.28278    1.000
    N2711    N        0.44957    0.00588    0.36803    1.000
    N2712    N        0.42233    0.94224    0.37447    1.000
    Si2713   Si       0.42046    0.80730    0.47102    1.000
    Si2714   Si       0.40669    0.80305    0.39526    1.000
    N2715    N        0.40564    0.75876    0.40360    1.000
    N2716    N        0.40190    0.82072    0.43330    1.000
    N2717    N        0.43046    0.93477    0.46150    1.000
    N2718    N        0.41518    0.99394    0.42403    1.000
    Si2719   Si       0.43017    0.97784    0.45984    1.000
    Si2720   Si       0.41564    0.98281    0.38121    1.000
    Si2721   Si       0.40250    0.90234    0.37498    1.000
    N2722    N        0.41628    0.88315    0.41094    1.000
    Si2723   Si       0.45532    0.88519    0.42887    1.000
    Si2724   Si       0.41780    0.80744    0.55560    1.000
    N2725    N        0.41418    0.76458    0.54276    1.000
    N2726    N        0.41198    0.82288    0.51225    1.000
    N2727    N        0.44011    0.75682    0.61234    1.000
    Si2728   Si       0.42648    0.91440    0.55678    1.000
    Si2729   Si       0.41723    0.98902    0.54322    1.000
    N2730    N        0.44171    0.95526    0.55487    1.000
    N2731    N        0.41477    0.89639    0.52002    1.000
    N2732    N        0.41557    0.99095    0.49759    1.000
    N2733    N        0.39781    0.90189    0.58658    1.000
    Si2734   Si       0.42008    0.87711    0.68278    1.000
    N2735    N        0.44855    0.81587    0.64115    1.000
    Si2736   Si       0.44191    0.81618    0.73516    1.000
    N2737    N        0.45158    0.85114    0.70348    1.000
    N2738    N        0.40372    0.79610    0.74040    1.000
    Si2739   Si       0.40633    0.82058    0.63364    1.000
    N2740    N        0.45734    0.98646    0.72518    1.000
    N2741    N        0.43201    0.90652    0.65218    1.000
    N2742    N        0.40735    0.96244    0.62151    1.000
    Si2743   Si       0.41535    0.98404    0.73564    1.000
    Si2744   Si       0.43861    0.99088    0.63418    1.000
    Si2745   Si       0.40052    0.92021    0.62816    1.000
    N2746    N        0.42435    0.78049    0.82485    1.000
    Si2747   Si       0.41523    0.81857    0.83764    1.000
    N2748    N        0.44264    0.85385    0.83850    1.000
    Si2749   Si       0.45457    0.85956    0.79580    1.000
    N2750    N        0.41980    0.88276    0.78192    1.000
    Si2751   Si       0.45675    0.78337    0.79575    1.000
    Si2752   Si       0.42685    0.96021    0.80349    1.000
    N2753    N        0.41458    0.95013    0.76376    1.000
    Si2754   Si       0.42303    0.91129    0.75062    1.000
    N2755    N        0.42785    0.00325    0.81204    1.000
    Si2756   Si       0.40942    0.95057    0.87302    1.000
    N2757    N        0.44559    0.80727    0.93813    1.000
    Si2758   Si       0.42585    0.78459    0.90550    1.000
    N2759    N        0.41304    0.81915    0.88251    1.000
    Si2760   Si       0.43278    0.86131    0.87969    1.000
    Si2761   Si       0.40626    0.79704    0.96013    1.000
    N2762    N        0.40232    0.87922    0.90575    1.000
    N2763    N        0.39926    0.76348    0.93155    1.000
    N2764    N        0.44315    0.92940    0.89231    1.000
    N2765    N        0.43266    0.98722    0.87803    1.000
    N2766    N        0.40722    0.92238    0.95092    1.000
    Si2767   Si       0.43759    0.90136    0.92562    1.000
    Si2768   Si       0.40157    0.95458    0.97886    1.000
    N2769    N        0.49313    0.06533    0.06048    1.000
    Si2770   Si       0.50259    0.03412    0.03329    1.000
    Si2771   Si       0.46901    0.10256    0.06034    1.000
    N2772    N        0.50252    0.10393    0.10932    1.000
    Si2773   Si       0.47494    0.12283    0.99847    1.000
    N2774    N        0.49381    0.13503    0.04054    1.000
    N2775    N        0.48178    0.23285    0.09180    1.000
    Si2776   Si       0.49043    0.23711    0.04891    1.000
    N2777    N        0.49038    0.16908    0.11028    1.000
    Si2778   Si       0.51162    0.20774    0.11132    1.000
    Si2779   Si       0.48182    0.18104    0.01727    1.000
    N2780    N        0.48272    0.05763    0.24360    1.000
    Si2781   Si       0.48074    0.12410    0.17998    1.000
    Si2782   Si       0.49539    0.04629    0.16133    1.000
    N2783    N        0.51125    0.02285    0.19850    1.000
    N2784    N        0.49889    0.08455    0.18324    1.000
    N2785    N        0.51291    0.11661    0.24008    1.000
    Si2786   Si       0.51494    0.07697    0.22282    1.000
    Si2787   Si       0.50299    0.01612    0.24246    1.000
    Si2788   Si       0.49713    0.24450    0.18974    1.000
    N2789    N        0.50493    0.20499    0.21527    1.000
    N2790    N        0.51073    0.14995    0.16754    1.000
    Si2791   Si       0.51883    0.13952    0.12547    1.000
    N2792    N        0.50747    0.22045    0.15273    1.000
    N2793    N        0.48861    0.08473    0.30638    1.000
    Si2794   Si       0.47994    0.11257    0.33826    1.000
    N2795    N        0.50288    0.03500    0.35606    1.000
    N2796    N        0.46668    0.02839    0.30348    1.000
    Si2797   Si       0.51074    0.04786    0.31247    1.000
    N2798    N        0.51589    0.12232    0.35690    1.000
    Si2799   Si       0.47316    0.13247    0.25293    1.000
    Si2800   Si       0.49915    0.20983    0.25837    1.000
    Si2801   Si       0.48745    0.18445    0.35253    1.000
    N2802    N        0.49785    0.16601    0.27029    1.000
    N2803    N        0.46373    0.23144    0.27284    1.000
    N2804    N        0.46815    0.22570    0.34561    1.000
    Si2805   Si       0.48923    0.02391    0.45547    1.000
    N2806    N        0.49899    0.10999    0.42376    1.000
    N2807    N        0.49878    0.05353    0.48696    1.000
    Si2808   Si       0.46553    0.08845    0.40900    1.000
    N2809    N        0.46076    0.04853    0.42943    1.000
    N2810    N        0.48566    0.13532    0.48423    1.000
    Si2811   Si       0.48042    0.19715    0.42788    1.000
    N2812    N        0.51274    0.20172    0.45522    1.000
    Si2813   Si       0.48045    0.25316    0.37491    1.000
    Si2814   Si       0.51658    0.21783    0.49620    1.000
    N2815    N        0.49562    0.17567    0.39563    1.000
    N2816    N        0.46244    0.23587    0.41274    1.000
    Si2817   Si       0.47743    0.04165    0.58825    1.000
    N2818    N        0.49369    0.03912    0.54901    1.000
    Si2819   Si       0.48633    0.07473    0.52363    1.000
    N2820    N        0.50711    0.12135    0.60987    1.000
    N2821    N        0.50592    0.11110    0.53804    1.000
    N2822    N        0.50922    0.05161    0.61489    1.000
    N2823    N        0.48456    0.18295    0.58527    1.000
    N2824    N        0.49883    0.19059    0.52348    1.000
    Si2825   Si       0.47520    0.15160    0.61430    1.000
    Si2826   Si       0.51102    0.14945    0.51761    1.000
    Si2827   Si       0.46363    0.19569    0.54946    1.000
    N2828    N        0.45860    0.23943    0.55320    1.000
    N2829    N        0.49414    0.10071    0.72789    1.000
    N2830    N        0.48680    0.03492    0.69540    1.000
    Si2831   Si       0.50430    0.08854    0.63751    1.000
    N2832    N        0.46535    0.08600    0.65267    1.000
    Si2833   Si       0.51458    0.06620    0.70981    1.000
    N2834    N        0.47669    0.16569    0.72220    1.000
    Si2835   Si       0.51028    0.13920    0.71830    1.000
    N2836    N        0.48359    0.17117    0.65077    1.000
    N2837    N        0.48377    0.23299    0.74090    1.000
    Si2838   Si       0.48272    0.24006    0.69719    1.000
    N2839    N        0.51751    0.22837    0.67203    1.000
    Si2840   Si       0.49118    0.04457    0.81148    1.000
    N2841    N        0.47430    0.04106    0.85066    1.000
    N2842    N        0.51560    0.00945    0.79768    1.000
    N2843    N        0.45944    0.05577    0.78235    1.000
    N2844    N        0.51286    0.13142    0.81004    1.000
    Si2845   Si       0.47125    0.14302    0.80456    1.000
    N2846    N        0.48485    0.18374    0.79200    1.000
    Si2847   Si       0.48260    0.21578    0.82096    1.000
    N2848    N        0.50601    0.21717    0.85878    1.000
    N2849    N        0.50626    0.25106    0.80617    1.000
    Si2850   Si       0.46374    0.19413    0.75470    1.000
    Si2851   Si       0.51492    0.24863    0.76432    1.000
    Si2852   Si       0.48444    0.01460    0.95502    1.000
    N2853    N        0.49350    0.09747    0.96811    1.000
    N2854    N        0.48517    0.04627    0.92266    1.000
    Si2855   Si       0.50326    0.05156    0.88329    1.000
    N2856    N        0.50798    0.09403    0.87525    1.000
    Si2857   Si       0.46463    0.08333    0.93851    1.000
    Si2858   Si       0.47651    0.12769    0.87853    1.000
    N2859    N        0.47529    0.02397    0.99939    1.000
    N2860    N        0.50612    0.15640    0.89002    1.000
    N2861    N        0.50961    0.15780    0.98782    1.000
    N2862    N        0.49597    0.37085    0.03102    1.000
    N2863    N        0.50617    0.35627    0.09559    1.000
    N2864    N        0.49868    0.27583    0.03280    1.000
    Si2865   Si       0.48180    0.27315    0.11715    1.000
    Si2866   Si       0.46584    0.34527    0.10429    1.000
    Si2867   Si       0.47081    0.35445    0.99487    1.000
    Si2868   Si       0.49447    0.41014    0.01338    1.000
    Si2869   Si       0.48764    0.47293    0.04625    1.000
    N2870    N        0.46652    0.44218    0.02346    1.000
    N2871    N        0.49788    0.49976    0.01360    1.000
    Si2872   Si       0.47763    0.32243    0.17850    1.000
    Si2873   Si       0.49557    0.33307    0.23736    1.000
    N2874    N        0.47519    0.34987    0.14670    1.000
    N2875    N        0.49130    0.28323    0.15992    1.000
    N2876    N        0.51621    0.32680    0.19992    1.000
    Si2877   Si       0.50737    0.48228    0.16819    1.000
    N2878    N        0.50712    0.46081    0.24523    1.000
    Si2879   Si       0.49335    0.43174    0.21401    1.000
    N2880    N        0.47835    0.45253    0.17927    1.000
    N2881    N        0.49692    0.49570    0.12902    1.000
    Si2882   Si       0.47657    0.30909    0.30742    1.000
    N2883    N        0.46929    0.34969    0.31327    1.000
    N2884    N        0.49181    0.30261    0.26543    1.000
    Si2885   Si       0.50225    0.37718    0.30136    1.000
    N2886    N        0.51361    0.36578    0.26153    1.000
    N2887    N        0.51316    0.28822    0.32310    1.000
    N2888    N        0.49842    0.42070    0.29916    1.000
    Si2889   Si       0.48119    0.43612    0.33799    1.000
    N2890    N        0.46950    0.39904    0.35427    1.000
    Si2891   Si       0.46239    0.49268    0.36055    1.000
    N2892    N        0.49252    0.46290    0.36952    1.000
    N2893    N        0.51007    0.34299    0.38413    1.000
    Si2894   Si       0.50110    0.30568    0.40132    1.000
    N2895    N        0.49175    0.29412    0.44253    1.000
    Si2896   Si       0.47495    0.37178    0.38696    1.000
    N2897    N        0.46518    0.29133    0.38057    1.000
    N2898    N        0.51103    0.42675    0.47582    1.000
    Si2899   Si       0.49592    0.46681    0.46699    1.000
    N2900    N        0.48218    0.39535    0.42207    1.000
    Si2901   Si       0.49486    0.33298    0.53269    1.000
    N2902    N        0.50390    0.30183    0.56102    1.000
    Si2903   Si       0.49938    0.25900    0.55090    1.000
    N2904    N        0.50421    0.25776    0.50488    1.000
    N2905    N        0.49130    0.38028    0.53847    1.000
    Si2906   Si       0.49499    0.37935    0.58207    1.000
    N2907    N        0.49126    0.50580    0.58302    1.000
    N2908    N        0.49330    0.42052    0.59955    1.000
    Si2909   Si       0.48405    0.47653    0.54517    1.000
    N2910    N        0.49635    0.49225    0.50293    1.000
    N2911    N        0.51598    0.44730    0.54218    1.000
    Si2912   Si       0.51751    0.41182    0.51699    1.000
    Si2913   Si       0.50625    0.30919    0.66939    1.000
    N2914    N        0.47490    0.28308    0.68771    1.000
    Si2915   Si       0.50081    0.37165    0.70354    1.000
    N2916    N        0.49591    0.35008    0.66624    1.000
    N2917    N        0.51600    0.29020    0.62853    1.000
    Si2918   Si       0.46305    0.35958    0.64055    1.000
    Si2919   Si       0.49752    0.50221    0.73768    1.000
    N2920    N        0.51838    0.47132    0.64420    1.000
    Si2921   Si       0.48697    0.49853    0.62752    1.000
    N2922    N        0.48061    0.29947    0.76893    1.000
    Si2923   Si       0.48507    0.34299    0.81261    1.000
    N2924    N        0.48153    0.36649    0.85011    1.000
    N2925    N        0.46487    0.30680    0.83181    1.000
    Si2926   Si       0.46319    0.27509    0.80094    1.000
    Si2927   Si       0.46123    0.32695    0.87015    1.000
    Si2928   Si       0.51970    0.31683    0.76189    1.000
    N2929    N        0.50542    0.40610    0.76136    1.000
    Si2930   Si       0.46938    0.49784    0.79950    1.000
    N2931    N        0.50544    0.47743    0.81032    1.000
    N2932    N        0.48311    0.42659    0.86072    1.000
    Si2933   Si       0.47504    0.46865    0.86479    1.000
    N2934    N        0.46287    0.48457    0.75714    1.000
    Si2935   Si       0.51804    0.39643    0.85724    1.000
    Si2936   Si       0.46396    0.39285    0.75755    1.000
    N2937    N        0.47168    0.26689    0.96288    1.000
    N2938    N        0.50349    0.32488    0.98375    1.000
    N2939    N        0.48025    0.30792    0.90306    1.000
    Si2940   Si       0.50287    0.28060    0.98980    1.000
    N2941    N        0.51582    0.44360    0.94769    1.000
    N2942    N        0.51334    0.47860    0.88128    1.000
    N2943    N        0.47579    0.39395    0.97661    1.000
    Si2944   Si       0.47403    0.43097    0.94735    1.000
    N2945    N        0.49350    0.59642    0.02300    1.000
    N2946    N        0.50448    0.66503    0.05191    1.000
    N2947    N        0.49626    0.73807    0.05680    1.000
    N2948    N        0.46335    0.67997    0.00322    1.000
    N2949    N        0.52019    0.58784    0.22874    1.000
    N2950    N        0.50131    0.58849    0.16661    1.000
    Si2951   Si       0.47729    0.54907    0.17221    1.000
    Si2952   Si       0.48265    0.60154    0.21130    1.000
    N2953    N        0.50508    0.52041    0.19079    1.000
    Si2954   Si       0.48265    0.62753    0.15576    1.000
    N2955    N        0.46727    0.73551    0.12114    1.000
    Si2956   Si       0.47295    0.68884    0.12361    1.000
    Si2957   Si       0.46539    0.75013    0.16268    1.000
    N2958    N        0.48533    0.64433    0.19854    1.000
    N2959    N        0.50202    0.65962    0.13300    1.000
    Si2960   Si       0.49661    0.65430    0.24058    1.000
    N2961    N        0.48984    0.71690    0.18547    1.000
    N2962    N        0.46986    0.68738    0.24535    1.000
    N2963    N        0.50073    0.58010    0.29628    1.000
    Si2964   Si       0.50213    0.54007    0.31232    1.000
    N2965    N        0.48526    0.52868    0.35068    1.000
    Si2966   Si       0.46855    0.60820    0.29524    1.000
    N2967    N        0.46561    0.62323    0.25294    1.000
    N2968    N        0.48592    0.50944    0.28624    1.000
    N2969    N        0.46895    0.59538    0.36744    1.000
    N2970    N        0.47618    0.64364    0.31999    1.000
    N2971    N        0.50187    0.70814    0.29653    1.000
    Si2972   Si       0.50166    0.71934    0.25456    1.000
    Si2973   Si       0.46708    0.73136    0.31421    1.000
    Si2974   Si       0.51138    0.66597    0.30889    1.000
    Si2975   Si       0.46400    0.64054    0.36156    1.000
    N2976    N        0.45870    0.73106    0.35668    1.000
    Si2977   Si       0.49172    0.56162    0.38115    1.000
    N2978    N        0.48198    0.55412    0.42238    1.000
    Si2979   Si       0.47403    0.62587    0.47264    1.000
    Si2980   Si       0.51081    0.56587    0.45329    1.000
    N2981    N        0.50822    0.60907    0.45301    1.000
    N2982    N        0.50600    0.55047    0.49436    1.000
    Si2983   Si       0.46702    0.52631    0.49757    1.000
    N2984    N        0.48732    0.66500    0.38896    1.000
    Si2985   Si       0.48116    0.69657    0.49271    1.000
    N2986    N        0.48451    0.66892    0.45834    1.000
    N2987    N        0.48538    0.73463    0.42223    1.000
    Si2988   Si       0.47016    0.68970    0.42253    1.000
    Si2989   Si       0.49359    0.74180    0.37981    1.000
    N2990    N        0.48279    0.61216    0.51376    1.000
    N2991    N        0.50423    0.56561    0.56310    1.000
    Si2992   Si       0.51270    0.58149    0.52411    1.000
    Si2993   Si       0.46774    0.54364    0.56979    1.000
    Si2994   Si       0.47672    0.64138    0.54369    1.000
    Si2995   Si       0.50933    0.68391    0.59872    1.000
    N2996    N        0.51302    0.65661    0.56428    1.000
    N2997    N        0.50827    0.72293    0.58768    1.000
    N2998    N        0.46969    0.67847    0.61704    1.000
    N2999    N        0.52143    0.70899    0.50332    1.000
    N3000    N        0.48284    0.52970    0.70997    1.000
    Si3001   Si       0.48185    0.62179    0.68275    1.000
    N3002    N        0.48877    0.53807    0.64224    1.000
    Si3003   Si       0.50977    0.54711    0.68052    1.000
    N3004    N        0.51473    0.58999    0.68373    1.000
    N3005    N        0.46495    0.61305    0.64459    1.000
    Si3006   Si       0.45467    0.71775    0.63191    1.000
    Si3007   Si       0.46888    0.74764    0.70422    1.000
    Si3008   Si       0.50745    0.70083    0.68562    1.000
    N3009    N        0.47941    0.72724    0.66518    1.000
    N3010    N        0.50266    0.72290    0.72227    1.000
    N3011    N        0.50192    0.65879    0.69169    1.000
    N3012    N        0.47470    0.54175    0.79100    1.000
    N3013    N        0.49660    0.64410    0.75907    1.000
    N3014    N        0.48523    0.65251    0.82996    1.000
    N3015    N        0.49781    0.70656    0.78584    1.000
    Si3016   Si       0.50902    0.66607    0.79416    1.000
    Si3017   Si       0.47254    0.59682    0.88916    1.000
    N3018    N        0.48694    0.57922    0.96003    1.000
    Si3019   Si       0.49633    0.54745    0.93205    1.000
    N3020    N        0.49946    0.56349    0.89261    1.000
    N3021    N        0.50118    0.62978    0.88925    1.000
    N3022    N        0.50688    0.73671    0.88222    1.000
    N3023    N        0.47069    0.72874    0.94842    1.000
    Si3024   Si       0.47203    0.72454    0.90482    1.000
    Si3025   Si       0.50264    0.66751    0.98329    1.000
    Si3026   Si       0.49846    0.74161    0.98081    1.000
    N3027    N        0.49332    0.66517    0.94241    1.000
    N3028    N        0.47833    0.87215    0.06509    1.000
    Si3029   Si       0.50127    0.83678    0.08330    1.000
    Si3030   Si       0.50219    0.77543    0.03315    1.000
    N3031    N        0.46908    0.76589    0.00612    1.000
    N3032    N        0.51839    0.80636    0.05708    1.000
    Si3033   Si       0.49623    0.91040    0.05867    1.000
    Si3034   Si       0.48634    0.96887    0.08527    1.000
    Si3035   Si       0.47328    0.98288    0.01833    1.000
    N3036    N        0.49307    0.99688    0.05354    1.000
    N3037    N        0.46344    0.94169    0.05997    1.000
    N3038    N        0.46286    0.98238    0.11679    1.000
    N3039    N        0.50041    0.95506    0.99798    1.000
    N3040    N        0.48120    0.85286    0.19505    1.000
    Si3041   Si       0.50906    0.84423    0.22788    1.000
    N3042    N        0.50056    0.83842    0.12662    1.000
    Si3043   Si       0.47587    0.82431    0.16149    1.000
    N3044    N        0.48857    0.78475    0.17554    1.000
    Si3045   Si       0.51671    0.77748    0.20753    1.000
    N3046    N        0.46805    0.92158    0.22559    1.000
    Si3047   Si       0.47764    0.96602    0.15565    1.000
    N3048    N        0.47558    0.91931    0.14836    1.000
    N3049    N        0.48228    0.84059    0.33317    1.000
    Si3050   Si       0.47215    0.78860    0.26680    1.000
    Si3051   Si       0.47339    0.79867    0.34353    1.000
    Si3052   Si       0.49893    0.85695    0.29541    1.000
    N3053    N        0.47614    0.77422    0.30748    1.000
    N3054    N        0.49310    0.82625    0.26483    1.000
    Si3055   Si       0.46958    0.87143    0.36005    1.000
    N3056    N        0.49490    0.76036    0.24328    1.000
    N3057    N        0.47039    0.88863    0.28730    1.000
    N3058    N        0.49810    0.97308    0.32398    1.000
    Si3059   Si       0.49330    0.91258    0.25945    1.000
    N3060    N        0.48921    0.91217    0.35698    1.000
    Si3061   Si       0.49110    0.99416    0.36255    1.000
    Si3062   Si       0.46762    0.98567    0.29610    1.000
    N3063    N        0.47400    0.98623    0.25253    1.000
    N3064    N        0.50128    0.78419    0.37201    1.000
    Si3065   Si       0.48346    0.83587    0.47081    1.000
    N3066    N        0.47849    0.85865    0.39985    1.000
    Si3067   Si       0.48264    0.75953    0.45902    1.000
    N3068    N        0.52000    0.84191    0.44896    1.000
    Si3069   Si       0.52148    0.85973    0.40980    1.000
    N3070    N        0.45675    0.87024    0.46833    1.000
    N3071    N        0.46233    0.79950    0.45988    1.000
    N3072    N        0.47381    0.98385    0.46135    1.000
    N3073    N        0.50897    0.97006    0.39342    1.000
    Si3074   Si       0.50867    0.92789    0.39475    1.000
    N3075    N        0.48450    0.91800    0.42928    1.000
    Si3076   Si       0.47435    0.93954    0.46469    1.000
    Si3077   Si       0.49749    0.81337    0.54333    1.000
    N3078    N        0.48805    0.84256    0.51320    1.000
    N3079    N        0.50551    0.78759    0.61060    1.000
    N3080    N        0.51007    0.77137    0.53971    1.000
    N3081    N        0.50793    0.86499    0.61585    1.000
    N3082    N        0.45987    0.80879    0.56897    1.000
    Si3083   Si       0.46455    0.79247    0.60682    1.000
    Si3084   Si       0.46248    0.88244    0.51329    1.000
    Si3085   Si       0.49278    0.89222    0.58614    1.000
    Si3086   Si       0.47536    0.96459    0.57878    1.000
    N3087    N        0.48269    0.93008    0.60748    1.000
    N3088    N        0.48410    0.91973    0.50376    1.000
    N3089    N        0.46057    0.88536    0.56023    1.000
    N3090    N        0.51541    0.96540    0.55780    1.000
    N3091    N        0.46379    0.00114    0.59754    1.000
    N3092    N        0.51194    0.82934    0.66772    1.000
    Si3093   Si       0.47060    0.82090    0.67891    1.000
    N3094    N        0.46647    0.78953    0.70904    1.000
    Si3095   Si       0.48503    0.88246    0.71309    1.000
    N3096    N        0.49234    0.89874    0.67446    1.000
    Si3097   Si       0.48592    0.99251    0.69368    1.000
    Si3098   Si       0.47193    0.92725    0.64879    1.000
    N3099    N        0.46646    0.90846    0.74067    1.000
    N3100    N        0.46886    0.97003    0.65984    1.000
    N3101    N        0.49357    0.77891    0.81934    1.000
    Si3102   Si       0.48699    0.77062    0.86206    1.000
    N3103    N        0.49524    0.87980    0.79401    1.000
    N3104    N        0.45658    0.82181    0.77538    1.000
    Si3105   Si       0.49175    0.91749    0.77427    1.000
    Si3106   Si       0.50965    0.96846    0.80333    1.000
    N3107    N        0.47061    0.94853    0.80151    1.000
    N3108    N        0.52159    0.94761    0.76525    1.000
    Si3109   Si       0.47995    0.82655    0.92015    1.000
    N3110    N        0.49885    0.80569    0.88460    1.000
    N3111    N        0.51481    0.84163    0.93912    1.000
    N3112    N        0.46360    0.86554    0.90842    1.000
    N3113    N        0.46322    0.97783    0.94403    1.000
    Si3114   Si       0.50067    0.88264    0.92836    1.000
    N3115    N        0.50434    0.97469    0.89023    1.000
    Si3116   Si       0.46854    0.94590    0.97225    1.000
    Si3117   Si       0.46411    0.96887    0.90109    1.000
    N3118    N        0.47366    0.90825    0.95161    1.000
    N3119    N        0.53992    0.04055    0.01324    1.000
    N3120    N        0.55737    0.07821    0.07203    1.000
    Si3121   Si       0.56651    0.07369    0.02367    1.000
    N3122    N        0.54659    0.10744    0.00560    1.000
    Si3123   Si       0.57313    0.11968    0.08159    1.000
    Si3124   Si       0.52093    0.06864    0.09386    1.000
    Si3125   Si       0.53308    0.14474    0.02285    1.000
    N3126    N        0.56376    0.15152    0.05206    1.000
    Si3127   Si       0.55699    0.21847    0.05636    1.000
    N3128    N        0.55067    0.22131    0.09912    1.000
    N3129    N        0.51899    0.20390    0.03852    1.000
    N3130    N        0.55997    0.13847    0.11859    1.000
    N3131    N        0.56243    0.26232    0.05514    1.000
    N3132    N        0.57013    0.01095    0.16304    1.000
    N3133    N        0.55593    0.06332    0.21945    1.000
    Si3134   Si       0.55495    0.02371    0.20042    1.000
    N3135    N        0.51699    0.03706    0.12548    1.000
    Si3136   Si       0.52482    0.18981    0.17978    1.000
    N3137    N        0.56793    0.18382    0.17781    1.000
    N3138    N        0.56598    0.16382    0.24656    1.000
    N3139    N        0.54794    0.06754    0.33210    1.000
    Si3140   Si       0.55320    0.11230    0.33925    1.000
    N3141    N        0.52751    0.02679    0.27809    1.000
    Si3142   Si       0.54292    0.05144    0.37146    1.000
    N3143    N        0.56135    0.12721    0.29735    1.000
    Si3144   Si       0.54956    0.22190    0.31029    1.000
    N3145    N        0.53172    0.23680    0.27357    1.000
    Si3146   Si       0.53437    0.14241    0.26521    1.000
    N3147    N        0.52342    0.19419    0.33168    1.000
    N3148    N        0.56833    0.25551    0.32908    1.000
    N3149    N        0.55975    0.01312    0.38062    1.000
    N3150    N        0.56362    0.08120    0.39308    1.000
    N3151    N        0.55194    0.08799    0.46667    1.000
    N3152    N        0.53118    0.02298    0.44030    1.000
    Si3153   Si       0.54098    0.04700    0.47886    1.000
    Si3154   Si       0.52474    0.12058    0.45953    1.000
    N3155    N        0.54681    0.15332    0.48731    1.000
    Si3156   Si       0.51879    0.13891    0.39706    1.000
    Si3157   Si       0.55197    0.18049    0.45146    1.000
    N3158    N        0.55056    0.14481    0.42576    1.000
    Si3159   Si       0.53083    0.12190    0.57226    1.000
    N3160    N        0.56037    0.09020    0.57187    1.000
    N3161    N        0.55278    0.01801    0.56803    1.000
    Si3162   Si       0.54542    0.02999    0.61068    1.000
    Si3163   Si       0.57218    0.05340    0.55098    1.000
    N3164    N        0.57235    0.04452    0.50896    1.000
    N3165    N        0.54471    0.15841    0.55373    1.000
    Si3166   Si       0.56894    0.17694    0.52118    1.000
    N3167    N        0.53120    0.23785    0.57320    1.000
    Si3168   Si       0.52684    0.19494    0.57901    1.000
    N3169    N        0.56054    0.21487    0.50242    1.000
    Si3170   Si       0.56903    0.25351    0.58954    1.000
    Si3171   Si       0.57321    0.02457    0.72291    1.000
    N3172    N        0.54161    0.04848    0.73926    1.000
    N3173    N        0.52918    0.08587    0.67285    1.000
    Si3174   Si       0.56013    0.11636    0.67188    1.000
    N3175    N        0.57283    0.02185    0.67891    1.000
    N3176    N        0.57335    0.24866    0.63452    1.000
    N3177    N        0.54643    0.19062    0.61933    1.000
    Si3178   Si       0.52261    0.18608    0.65620    1.000
    N3179    N        0.53565    0.15077    0.68352    1.000
    Si3180   Si       0.54603    0.03995    0.78390    1.000
    Si3181   Si       0.53138    0.10283    0.83638    1.000
    N3182    N        0.52784    0.06921    0.80975    1.000
    N3183    N        0.56202    0.12606    0.86204    1.000
    N3184    N        0.55622    0.18449    0.81353    1.000
    Si3185   Si       0.52662    0.16914    0.78623    1.000
    N3186    N        0.54720    0.21680    0.76020    1.000
    N3187    N        0.54044    0.14752    0.75020    1.000
    N3188    N        0.57166    0.24972    0.82904    1.000
    Si3189   Si       0.57278    0.16676    0.84832    1.000
    Si3190   Si       0.57635    0.21935    0.79662    1.000
    Si3191   Si       0.52962    0.25363    0.84659    1.000
    Si3192   Si       0.53690    0.09557    0.96560    1.000
    N3193    N        0.54189    0.02994    0.88215    1.000
    Si3194   Si       0.55506    0.02780    0.97431    1.000
    N3195    N        0.56635    0.06527    0.95715    1.000
    Si3196   Si       0.53398    0.12483    0.89593    1.000
    N3197    N        0.54709    0.12823    0.93631    1.000
    N3198    N        0.53783    0.26018    0.90099    1.000
    N3199    N        0.56787    0.19582    0.87950    1.000
    N3200    N        0.53003    0.20334    0.93539    1.000
    Si3201   Si       0.52352    0.19738    0.89287    1.000
    Si3202   Si       0.53935    0.16530    0.95760    1.000
    Si3203   Si       0.55081    0.24349    0.93836    1.000
    N3204    N        0.57121    0.17037    0.98683    1.000
    N3205    N        0.55106    0.33128    0.04491    1.000
    Si3206   Si       0.52641    0.36468    0.05961    1.000
    Si3207   Si       0.53232    0.29425    0.05712    1.000
    Si3208   Si       0.56017    0.26414    0.10599    1.000
    N3209    N        0.52122    0.28334    0.09924    1.000
    Si3210   Si       0.56977    0.39988    0.10640    1.000
    N3211    N        0.55175    0.39781    0.06884    1.000
    Si3212   Si       0.55147    0.43866    0.05117    1.000
    N3213    N        0.53261    0.42865    0.01225    1.000
    Si3214   Si       0.52395    0.50079    0.09745    1.000
    N3215    N        0.52394    0.46693    0.06920    1.000
    N3216    N        0.56196    0.50558    0.12134    1.000
    Si3217   Si       0.51975    0.35911    0.13790    1.000
    N3218    N        0.55112    0.32915    0.14743    1.000
    Si3219   Si       0.53481    0.29459    0.17108    1.000
    N3220    N        0.56797    0.26743    0.15150    1.000
    N3221    N        0.53218    0.26431    0.20674    1.000
    Si3222   Si       0.54717    0.38343    0.24011    1.000
    Si3223   Si       0.56059    0.25558    0.23951    1.000
    N3224    N        0.54698    0.46144    0.16958    1.000
    N3225    N        0.54351    0.39469    0.14177    1.000
    Si3226   Si       0.55397    0.41829    0.17661    1.000
    N3227    N        0.52786    0.40607    0.20840    1.000
    N3228    N        0.53935    0.36868    0.32385    1.000
    Si3229   Si       0.54407    0.28238    0.35107    1.000
    N3230    N        0.56204    0.29148    0.26301    1.000
    Si3231   Si       0.52544    0.27969    0.28282    1.000
    Si3232   Si       0.54775    0.35319    0.36376    1.000
    N3233    N        0.57003    0.31449    0.36549    1.000
    N3234    N        0.56358    0.41427    0.26789    1.000
    N3235    N        0.54894    0.47742    0.28920    1.000
    Si3236   Si       0.52881    0.43918    0.27625    1.000
    N3237    N        0.56090    0.43332    0.33452    1.000
    Si3238   Si       0.56634    0.39878    0.31015    1.000
    Si3239   Si       0.52136    0.49751    0.26332    1.000
    N3240    N        0.55722    0.27833    0.46243    1.000
    N3241    N        0.54645    0.37259    0.44731    1.000
    Si3242   Si       0.55243    0.35422    0.48537    1.000
    Si3243   Si       0.51781    0.28911    0.47768    1.000
    N3244    N        0.52155    0.26979    0.38578    1.000
    N3245    N        0.54091    0.43119    0.40722    1.000
    Si3246   Si       0.57150    0.42443    0.37584    1.000
    Si3247   Si       0.52211    0.40721    0.43816    1.000
    N3248    N        0.54927    0.49896    0.37940    1.000
    Si3249   Si       0.55963    0.50681    0.44414    1.000
    Si3250   Si       0.52409    0.46933    0.39784    1.000
    N3251    N        0.56753    0.50077    0.48520    1.000
    N3252    N        0.52232    0.48617    0.43839    1.000
    N3253    N        0.53205    0.35503    0.59358    1.000
    Si3254   Si       0.53087    0.31176    0.59280    1.000
    N3255    N        0.57080    0.29602    0.58525    1.000
    Si3256   Si       0.56870    0.37703    0.60418    1.000
    N3257    N        0.51874    0.32702    0.49834    1.000
    N3258    N        0.55346    0.38896    0.51564    1.000
    Si3259   Si       0.55329    0.46797    0.55304    1.000
    N3260    N        0.55776    0.46152    0.59401    1.000
    Si3261   Si       0.52931    0.43858    0.61615    1.000
    Si3262   Si       0.53816    0.26134    0.65393    1.000
    N3263    N        0.52391    0.34447    0.72822    1.000
    N3264    N        0.54529    0.29350    0.68405    1.000
    Si3265   Si       0.56954    0.28750    0.71882    1.000
    Si3266   Si       0.56609    0.35866    0.72902    1.000
    Si3267   Si       0.53963    0.47674    0.68209    1.000
    Si3268   Si       0.56090    0.40980    0.67492    1.000
    Si3269   Si       0.52821    0.43289    0.73699    1.000
    N3270    N        0.55281    0.40543    0.63365    1.000
    N3271    N        0.57537    0.44898    0.67901    1.000
    N3272    N        0.52443    0.40826    0.69849    1.000
    N3273    N        0.51798    0.47071    0.71884    1.000
    Si3274   Si       0.55119    0.32828    0.83356    1.000
    N3275    N        0.54742    0.36138    0.86196    1.000
    N3276    N        0.52878    0.29788    0.85249    1.000
    N3277    N        0.52530    0.34128    0.79834    1.000
    N3278    N        0.54253    0.28032    0.75278    1.000
    N3279    N        0.57277    0.38474    0.76341    1.000
    Si3280   Si       0.53593    0.38514    0.78437    1.000
    N3281    N        0.55894    0.44553    0.76664    1.000
    Si3282   Si       0.53933    0.45236    0.80661    1.000
    N3283    N        0.53514    0.41172    0.81952    1.000
    N3284    N        0.56652    0.47297    0.83660    1.000
    Si3285   Si       0.54195    0.50180    0.85604    1.000
    Si3286   Si       0.54430    0.32136    0.96642    1.000
    N3287    N        0.54139    0.27543    0.96891    1.000
    N3288    N        0.54026    0.33031    0.92234    1.000
    Si3289   Si       0.55365    0.36791    0.90410    1.000
    N3290    N        0.57246    0.35166    0.98352    1.000
    Si3291   Si       0.52413    0.30105    0.89518    1.000
    N3292    N        0.56995    0.46980    0.91922    1.000
    Si3293   Si       0.53282    0.44914    0.90745    1.000
    Si3294   Si       0.54893    0.44595    0.97608    1.000
    N3295    N        0.56132    0.48430    0.98823    1.000
    N3296    N        0.53331    0.40622    0.89687    1.000
    N3297    N        0.55453    0.60491    0.05445    1.000
    N3298    N        0.54096    0.55278    0.00847    1.000
    Si3299   Si       0.55043    0.56066    0.04872    1.000
    N3300    N        0.52496    0.53952    0.07726    1.000
    N3301    N        0.56153    0.58638    0.11861    1.000
    Si3302   Si       0.57758    0.61340    0.09004    1.000
    Si3303   Si       0.52339    0.62842    0.03605    1.000
    N3304    N        0.56378    0.70433    0.04378    1.000
    N3305    N        0.57037    0.65479    0.10063    1.000
    Si3306   Si       0.56558    0.70166    0.00042    1.000
    N3307    N        0.53157    0.70979    0.10408    1.000
    Si3308   Si       0.52310    0.70590    0.06122    1.000
    N3309    N        0.56100    0.56319    0.18294    1.000
    Si3310   Si       0.53267    0.54879    0.21171    1.000
    Si3311   Si       0.54306    0.59308    0.15719    1.000
    N3312    N        0.54457    0.52928    0.24712    1.000
    N3313    N        0.55670    0.69959    0.16168    1.000
    Si3314   Si       0.54347    0.66637    0.13508    1.000
    Si3315   Si       0.56081    0.72795    0.12851    1.000
    Si3316   Si       0.53175    0.71081    0.19416    1.000
    N3317    N        0.55505    0.63448    0.16355    1.000
    N3318    N        0.54990    0.75156    0.20517    1.000
    N3319    N        0.53198    0.69149    0.23286    1.000
    N3320    N        0.54480    0.53984    0.31630    1.000
    Si3321   Si       0.55709    0.53613    0.35871    1.000
    Si3322   Si       0.53144    0.59958    0.26944    1.000
    Si3323   Si       0.56823    0.54491    0.27998    1.000
    N3324    N        0.57425    0.58848    0.27863    1.000
    N3325    N        0.53913    0.66228    0.34161    1.000
    N3326    N        0.52640    0.64287    0.27148    1.000
    Si3327   Si       0.56144    0.66807    0.25302    1.000
    Si3328   Si       0.57179    0.61052    0.48136    1.000
    N3329    N        0.53501    0.57046    0.37953    1.000
    N3330    N        0.54918    0.54846    0.44102    1.000
    Si3331   Si       0.56783    0.56990    0.40973    1.000
    Si3332   Si       0.52790    0.67944    0.38093    1.000
    Si3333   Si       0.57260    0.73501    0.37221    1.000
    Si3334   Si       0.52674    0.64794    0.44636    1.000
    N3335    N        0.55030    0.66855    0.41578    1.000
    N3336    N        0.55201    0.64849    0.48261    1.000
    N3337    N        0.53044    0.72100    0.37274    1.000
    N3338    N        0.56240    0.53901    0.60731    1.000
    N3339    N        0.55554    0.58865    0.51652    1.000
    Si3340   Si       0.52666    0.53134    0.58188    1.000
    Si3341   Si       0.53404    0.51589    0.50863    1.000
    N3342    N        0.55020    0.51165    0.54958    1.000
    Si3343   Si       0.53290    0.75046    0.50804    1.000
    Si3344   Si       0.55701    0.65529    0.57232    1.000
    N3345    N        0.54945    0.67410    0.61215    1.000
    Si3346   Si       0.55607    0.68487    0.50544    1.000
    N3347    N        0.57521    0.75270    0.52082    1.000
    N3348    N        0.57406    0.68448    0.54544    1.000
    N3349    N        0.54408    0.51904    0.67917    1.000
    N3350    N        0.55720    0.62064    0.72485    1.000
    Si3351   Si       0.55835    0.60606    0.68414    1.000
    Si3352   Si       0.57277    0.53446    0.64965    1.000
    Si3353   Si       0.52746    0.65189    0.72868    1.000
    Si3354   Si       0.57188    0.67840    0.64823    1.000
    N3355    N        0.55115    0.69879    0.68317    1.000
    N3356    N        0.54484    0.60249    0.84983    1.000
    N3357    N        0.54199    0.58071    0.78472    1.000
    N3358    N        0.53262    0.51916    0.76157    1.000
    Si3359   Si       0.56876    0.59160    0.81664    1.000
    N3360    N        0.52898    0.53814    0.83327    1.000
    Si3361   Si       0.56979    0.59364    0.75476    1.000
    Si3362   Si       0.53462    0.56389    0.86886    1.000
    Si3363   Si       0.51732    0.54544    0.79374    1.000
    N3364    N        0.54957    0.68027    0.75416    1.000
    N3365    N        0.54637    0.65952    0.81795    1.000
    Si3366   Si       0.52760    0.71816    0.75719    1.000
    N3367    N        0.57047    0.72590    0.84926    1.000
    Si3368   Si       0.52427    0.64118    0.85144    1.000
    Si3369   Si       0.57568    0.65624    0.78094    1.000
    Si3370   Si       0.57749    0.68307    0.83988    1.000
    Si3371   Si       0.53022    0.51470    0.99094    1.000
    N3372    N        0.55239    0.59089    0.95559    1.000
    N3373    N        0.55980    0.53094    0.88583    1.000
    N3374    N        0.52377    0.51961    0.94822    1.000
    Si3375   Si       0.56211    0.51290    0.92576    1.000
    Si3376   Si       0.52148    0.58707    0.98787    1.000
    Si3377   Si       0.57342    0.63388    0.97171    1.000
    Si3378   Si       0.54508    0.71754    0.88238    1.000
    Si3379   Si       0.52400    0.65658    0.91494    1.000
    N3380    N        0.53299    0.63761    0.99432    1.000
    N3381    N        0.53892    0.67605    0.87800    1.000
    N3382    N        0.57187    0.71955    0.91657    1.000
    N3383    N        0.56443    0.65208    0.93253    1.000
    N3384    N        0.52341    0.70415    0.98801    1.000
    N3385    N        0.54406    0.85607    0.08500    1.000
    Si3386   Si       0.56065    0.82130    0.05967    1.000
    N3387    N        0.52982    0.76951    0.00026    1.000
    Si3388   Si       0.56444    0.88647    0.05623    1.000
    Si3389   Si       0.55499    0.95210    0.07561    1.000
    N3390    N        0.53111    0.90271    0.03430    1.000
    N3391    N        0.56371    0.96546    0.03445    1.000
    Si3392   Si       0.53827    0.93788    0.00860    1.000
    N3393    N        0.56664    0.98498    0.10122    1.000
    N3394    N        0.51597    0.93594    0.09151    1.000
    Si3395   Si       0.54107    0.85608    0.13017    1.000
    N3396    N        0.53777    0.81835    0.20941    1.000
    N3397    N        0.56929    0.76612    0.14288    1.000
    N3398    N        0.57160    0.83190    0.14613    1.000
    Si3399   Si       0.57488    0.83039    0.19093    1.000
    N3400    N        0.52226    0.88102    0.24594    1.000
    Si3401   Si       0.54038    0.00159    0.13266    1.000
    N3402    N        0.56008    0.99372    0.23443    1.000
    N3403    N        0.56620    0.92395    0.21212    1.000
    N3404    N        0.54569    0.89453    0.14792    1.000
    Si3405   Si       0.57982    0.90359    0.17471    1.000
    Si3406   Si       0.51688    0.92517    0.13680    1.000
    N3407    N        0.51943    0.96698    0.14890    1.000
    N3408    N        0.53477    0.87196    0.31317    1.000
    N3409    N        0.56946    0.77487    0.35086    1.000
    N3410    N        0.57213    0.81913    0.29467    1.000
    Si3411   Si       0.57683    0.86082    0.30396    1.000
    Si3412   Si       0.54834    0.88674    0.35552    1.000
    N3413    N        0.55796    0.92894    0.34619    1.000
    Si3414   Si       0.53759    0.95430    0.31815    1.000
    N3415    N        0.56571    0.98882    0.31451    1.000
    N3416    N        0.53160    0.93307    0.27955    1.000
    Si3417   Si       0.55604    0.90737    0.25560    1.000
    Si3418   Si       0.56744    0.00824    0.27524    1.000
    Si3419   Si       0.54104    0.79797    0.37465    1.000
    N3420    N        0.53984    0.84132    0.37672    1.000
    Si3421   Si       0.54365    0.80424    0.45497    1.000
    N3422    N        0.55654    0.79297    0.41381    1.000
    N3423    N        0.52380    0.76965    0.47124    1.000
    Si3424   Si       0.57730    0.91978    0.42254    1.000
    N3425    N        0.54166    0.89927    0.40289    1.000
    N3426    N        0.55841    0.95660    0.43716    1.000
    Si3427   Si       0.56332    0.96804    0.48051    1.000
    Si3428   Si       0.54341    0.99169    0.41386    1.000
    Si3429   Si       0.55228    0.86443    0.55346    1.000
    N3430    N        0.56599    0.77178    0.58795    1.000
    N3431    N        0.53011    0.83042    0.56533    1.000
    Si3432   Si       0.52553    0.82594    0.60961    1.000
    Si3433   Si       0.52379    0.76120    0.58097    1.000
    N3434    N        0.57349    0.86068    0.51612    1.000
    N3435    N        0.53432    0.99424    0.50007    1.000
    Si3436   Si       0.55346    0.97282    0.58321    1.000
    N3437    N        0.52452    0.89708    0.55531    1.000
    N3438    N        0.55619    0.93133    0.50381    1.000
    Si3439   Si       0.52100    0.93107    0.52742    1.000
    Si3440   Si       0.52208    0.00704    0.53888    1.000
    Si3441   Si       0.57820    0.77426    0.74319    1.000
    Si3442   Si       0.55170    0.83577    0.73946    1.000
    N3443    N        0.56269    0.76587    0.66067    1.000
    N3444    N        0.56225    0.82150    0.63224    1.000
    Si3445   Si       0.54681    0.80451    0.67392    1.000
    N3446    N        0.55802    0.80168    0.71544    1.000
    Si3447   Si       0.52244    0.87126    0.65726    1.000
    N3448    N        0.51903    0.86100    0.72745    1.000
    N3449    N        0.54257    0.98879    0.62280    1.000
    N3450    N        0.56221    0.88404    0.65386    1.000
    Si3451   Si       0.55473    0.98448    0.66389    1.000
    N3452    N        0.52718    0.97650    0.69729    1.000
    Si3453   Si       0.54412    0.95671    0.73238    1.000
    N3454    N        0.56664    0.92158    0.71689    1.000
    N3455    N        0.57427    0.98638    0.74321    1.000
    N3456    N        0.54427    0.82516    0.78248    1.000
    Si3457   Si       0.53488    0.78684    0.80153    1.000
    N3458    N        0.55605    0.79028    0.83838    1.000
    Si3459   Si       0.53788    0.86402    0.80174    1.000
    N3460    N        0.53927    0.85616    0.84453    1.000
    Si3461   Si       0.53760    0.81834    0.86504    1.000
    N3462    N        0.54644    0.75649    0.77069    1.000
    N3463    N        0.53030    0.94544    0.83280    1.000
    N3464    N        0.56311    0.89724    0.78777    1.000
    Si3465   Si       0.56756    0.92915    0.81752    1.000
    N3466    N        0.57943    0.91073    0.85441    1.000
    Si3467   Si       0.55564    0.82764    0.94081    1.000
    N3468    N        0.56623    0.83750    0.89740    1.000
    N3469    N        0.56853    0.78808    0.94771    1.000
    Si3470   Si       0.56943    0.77404    0.98884    1.000
    Si3471   Si       0.56110    0.87909    0.87875    1.000
    N3472    N        0.52775    0.00533    0.95049    1.000
    Si3473   Si       0.54383    0.99423    0.91050    1.000
    N3474    N        0.56227    0.92552    0.97706    1.000
    Si3475   Si       0.52762    0.94102    0.87579    1.000
    N3476    N        0.52475    0.90103    0.89605    1.000
    N3477    N        0.56134    0.95699    0.89839    1.000
    N3478    N        0.60972    0.08096    0.01587    1.000
    N3479    N        0.61593    0.12000    0.07703    1.000
    Si3480   Si       0.63383    0.11207    0.04020    1.000
    N3481    N        0.61972    0.00828    0.05553    1.000
    N3482    N        0.59641    0.20725    0.04243    1.000
    Si3483   Si       0.59320    0.16975    0.02326    1.000
    N3484    N        0.63058    0.14912    0.01810    1.000
    N3485    N        0.62664    0.01656    0.12584    1.000
    N3486    N        0.62421    0.09837    0.23412    1.000
    N3487    N        0.61507    0.05240    0.18791    1.000
    Si3488   Si       0.59395    0.08354    0.20855    1.000
    Si3489   Si       0.61331    0.01240    0.16895    1.000
    N3490    N        0.58082    0.11608    0.18236    1.000
    N3491    N        0.62107    0.15135    0.13943    1.000
    Si3492   Si       0.62798    0.25291    0.22459    1.000
    N3493    N        0.59303    0.22648    0.23107    1.000
    N3494    N        0.62825    0.16877    0.20856    1.000
    Si3495   Si       0.58073    0.14755    0.15439    1.000
    Si3496   Si       0.58832    0.18615    0.21706    1.000
    N3497    N        0.63505    0.24910    0.18200    1.000
    N3498    N        0.61434    0.04030    0.34062    1.000
    N3499    N        0.60786    0.02046    0.27180    1.000
    Si3500   Si       0.63528    0.03675    0.30299    1.000
    Si3501   Si       0.59357    0.17607    0.34888    1.000
    Si3502   Si       0.60461    0.24331    0.34928    1.000
    Si3503   Si       0.58817    0.15991    0.28285    1.000
    N3504    N        0.58288    0.19317    0.30921    1.000
    N3505    N        0.63012    0.15589    0.27860    1.000
    N3506    N        0.57804    0.13914    0.36557    1.000
    Si3507   Si       0.59136    0.11425    0.40069    1.000
    Si3508   Si       0.59685    0.09186    0.47322    1.000
    N3509    N        0.62201    0.05570    0.46976    1.000
    N3510    N        0.61121    0.11459    0.43916    1.000
    N3511    N        0.63180    0.10221    0.37864    1.000
    Si3512   Si       0.60924    0.22619    0.41021    1.000
    N3513    N        0.58986    0.20820    0.37478    1.000
    Si3514   Si       0.57942    0.24251    0.47500    1.000
    N3515    N        0.58127    0.21202    0.44249    1.000
    N3516    N        0.61258    0.05984    0.56302    1.000
    N3517    N        0.61086    0.10966    0.51275    1.000
    Si3518   Si       0.59224    0.08739    0.60100    1.000
    N3519    N        0.63233    0.10601    0.59831    1.000
    Si3520   Si       0.61026    0.02483    0.50003    1.000
    N3521    N        0.61070    0.17462    0.52891    1.000
    N3522    N        0.61574    0.17003    0.60333    1.000
    N3523    N        0.59712    0.22236    0.57876    1.000
    Si3524   Si       0.62551    0.19117    0.56610    1.000
    Si3525   Si       0.58922    0.20192    0.62027    1.000
    N3526    N        0.58304    0.11607    0.63489    1.000
    N3527    N        0.58517    0.11232    0.70611    1.000
    Si3528   Si       0.61927    0.08616    0.71317    1.000
    Si3529   Si       0.60409    0.04168    0.65472    1.000
    N3530    N        0.61020    0.04601    0.73015    1.000
    N3531    N        0.58114    0.05007    0.62061    1.000
    N3532    N        0.63079    0.00955    0.63954    1.000
    N3533    N        0.59234    0.17955    0.72187    1.000
    N3534    N        0.60875    0.20425    0.65882    1.000
    Si3535   Si       0.58259    0.21947    0.73514    1.000
    Si3536   Si       0.60336    0.24584    0.66715    1.000
    Si3537   Si       0.58034    0.14162    0.73708    1.000
    Si3538   Si       0.62260    0.17787    0.69045    1.000
    N3539    N        0.59047    0.25002    0.70670    1.000
    Si3540   Si       0.62224    0.13411    0.62933    1.000
    N3541    N        0.60768    0.08750    0.83101    1.000
    Si3542   Si       0.61680    0.04735    0.81646    1.000
    N3543    N        0.61407    0.01979    0.85226    1.000
    Si3544   Si       0.62197    0.12180    0.80706    1.000
    N3545    N        0.58630    0.02834    0.79182    1.000
    N3546    N        0.60532    0.12674    0.76858    1.000
    Si3547   Si       0.60048    0.10764    0.87066    1.000
    N3548    N        0.60975    0.22636    0.77070    1.000
    N3549    N        0.61284    0.15428    0.83422    1.000
    Si3550   Si       0.60487    0.07321    0.93698    1.000
    N3551    N        0.59227    0.07428    0.89633    1.000
    N3552    N        0.62786    0.10526    0.95534    1.000
    Si3553   Si       0.58742    0.03316    0.88262    1.000
    N3554    N        0.58972    0.01193    0.91945    1.000
    N3555    N        0.62774    0.13514    0.89349    1.000
    N3556    N        0.59286    0.23727    0.93121    1.000
    Si3557   Si       0.59810    0.22498    0.88943    1.000
    N3558    N        0.63595    0.20281    0.88667    1.000
    N3559    N        0.61145    0.30349    0.02234    1.000
    N3560    N        0.61886    0.36531    0.03764    1.000
    N3561    N        0.59727    0.36550    0.10657    1.000
    Si3562   Si       0.58686    0.33842    0.02164    1.000
    N3563    N        0.59225    0.29337    0.09734    1.000
    Si3564   Si       0.60340    0.27813    0.05663    1.000
    Si3565   Si       0.62928    0.37481    0.07838    1.000
    Si3566   Si       0.61676    0.45080    0.08341    1.000
    N3567    N        0.59131    0.45368    0.04945    1.000
    N3568    N        0.58692    0.43748    0.11257    1.000
    N3569    N        0.62717    0.49081    0.09228    1.000
    Si3570   Si       0.58989    0.32623    0.12755    1.000
    N3571    N        0.62122    0.31485    0.15687    1.000
    Si3572   Si       0.60290    0.27896    0.17308    1.000
    N3573    N        0.60307    0.28772    0.21589    1.000
    N3574    N        0.58219    0.35785    0.22958    1.000
    Si3575   Si       0.59206    0.31807    0.24608    1.000
    Si3576   Si       0.61386    0.38476    0.21442    1.000
    Si3577   Si       0.62175    0.45181    0.19352    1.000
    N3578    N        0.60868    0.46729    0.23272    1.000
    N3579    N        0.59605    0.41575    0.18952    1.000
    N3580    N        0.61574    0.47814    0.15863    1.000
    Si3581   Si       0.57666    0.47062    0.13935    1.000
    Si3582   Si       0.63340    0.50689    0.13063    1.000
    Si3583   Si       0.61782    0.37354    0.35707    1.000
    N3584    N        0.60442    0.37718    0.31523    1.000
    Si3585   Si       0.63167    0.36345    0.28563    1.000
    N3586    N        0.63141    0.32564    0.26296    1.000
    N3587    N        0.61459    0.45004    0.29939    1.000
    Si3588   Si       0.60293    0.43184    0.26091    1.000
    N3589    N        0.59888    0.50521    0.33751    1.000
    N3590    N        0.62961    0.39721    0.25460    1.000
    Si3591   Si       0.57987    0.46967    0.31787    1.000
    Si3592   Si       0.59504    0.30258    0.45818    1.000
    Si3593   Si       0.60790    0.30748    0.38535    1.000
    N3594    N        0.61350    0.32137    0.42681    1.000
    N3595    N        0.60852    0.26427    0.38853    1.000
    N3596    N        0.61662    0.26763    0.47241    1.000
    N3597    N        0.58834    0.33183    0.49092    1.000
    N3598    N        0.57980    0.38066    0.37579    1.000
    N3599    N        0.60522    0.45251    0.37734    1.000
    N3600    N        0.59659    0.49536    0.42513    1.000
    Si3601   Si       0.59491    0.49687    0.38247    1.000
    N3602    N        0.62451    0.45162    0.47238    1.000
    Si3603   Si       0.60790    0.31628    0.59299    1.000
    Si3604   Si       0.62430    0.34553    0.51114    1.000
    N3605    N        0.62297    0.32722    0.55062    1.000
    N3606    N        0.60010    0.34825    0.62229    1.000
    N3607    N        0.62074    0.38828    0.50746    1.000
    N3608    N        0.59398    0.39768    0.57457    1.000
    Si3609   Si       0.59025    0.40568    0.53079    1.000
    N3610    N        0.61172    0.49382    0.57972    1.000
    Si3611   Si       0.59566    0.47098    0.61445    1.000
    N3612    N        0.58254    0.44856    0.52758    1.000
    Si3613   Si       0.63201    0.41225    0.58830    1.000
    Si3614   Si       0.59991    0.47519    0.49845    1.000
    N3615    N        0.63268    0.49868    0.51603    1.000
    N3616    N        0.58915    0.32371    0.73263    1.000
    N3617    N        0.58487    0.38042    0.69752    1.000
    Si3618   Si       0.63682    0.36221    0.63940    1.000
    Si3619   Si       0.62780    0.32545    0.75099    1.000
    N3620    N        0.62247    0.43744    0.62293    1.000
    N3621    N        0.62607    0.42132    0.73886    1.000
    N3622    N        0.59316    0.49216    0.72298    1.000
    Si3623   Si       0.62467    0.38754    0.70989    1.000
    N3624    N        0.60271    0.49920    0.64685    1.000
    Si3625   Si       0.60744    0.47749    0.68566    1.000
    Si3626   Si       0.60317    0.27743    0.83946    1.000
    N3627    N        0.59361    0.31980    0.83389    1.000
    Si3628   Si       0.62713    0.34840    0.82966    1.000
    N3629    N        0.63143    0.34871    0.78656    1.000
    N3630    N        0.62748    0.38713    0.85150    1.000
    N3631    N        0.61685    0.43881    0.80597    1.000
    Si3632   Si       0.60589    0.47957    0.82154    1.000
    Si3633   Si       0.59426    0.42325    0.76940    1.000
    N3634    N        0.59515    0.36893    0.91671    1.000
    Si3635   Si       0.62083    0.27089    0.92711    1.000
    Si3636   Si       0.59619    0.37906    0.95946    1.000
    N3637    N        0.61229    0.26747    0.88241    1.000
    N3638    N        0.62804    0.30639    0.95274    1.000
    N3639    N        0.58349    0.42062    0.96191    1.000
    Si3640   Si       0.59889    0.50518    0.98399    1.000
    Si3641   Si       0.62798    0.38716    0.89631    1.000
    N3642    N        0.62497    0.47778    0.96287    1.000
    N3643    N        0.62971    0.42878    0.90771    1.000
    Si3644   Si       0.60459    0.44918    0.93624    1.000
    N3645    N        0.62131    0.60906    0.08921    1.000
    N3646    N        0.62531    0.51946    0.01662    1.000
    Si3647   Si       0.62162    0.52232    0.06022    1.000
    N3648    N        0.58609    0.54373    0.06774    1.000
    Si3649   Si       0.57311    0.54557    0.10934    1.000
    N3650    N        0.62258    0.67749    0.05773    1.000
    Si3651   Si       0.58632    0.68964    0.07977    1.000
    N3652    N        0.59955    0.71695    0.11271    1.000
    Si3653   Si       0.63187    0.74472    0.10413    1.000
    N3654    N        0.63176    0.74909    0.06161    1.000
    N3655    N        0.62248    0.53703    0.20087    1.000
    N3656    N        0.61793    0.60449    0.17760    1.000
    N3657    N        0.61347    0.54840    0.13252    1.000
    Si3658   Si       0.60377    0.56352    0.17427    1.000
    Si3659   Si       0.62269    0.50910    0.23542    1.000
    Si3660   Si       0.59285    0.63928    0.18536    1.000
    N3661    N        0.61528    0.72961    0.18418    1.000
    Si3662   Si       0.63285    0.65710    0.24216    1.000
    N3663    N        0.62188    0.66353    0.16223    1.000
    N3664    N        0.59071    0.65143    0.22609    1.000
    Si3665   Si       0.62111    0.70424    0.15012    1.000
    N3666    N        0.62920    0.69990    0.24974    1.000
    N3667    N        0.60612    0.52837    0.27014    1.000
    Si3668   Si       0.61208    0.60319    0.29890    1.000
    Si3669   Si       0.62540    0.52783    0.31137    1.000
    N3670    N        0.62601    0.56974    0.32464    1.000
    N3671    N        0.60754    0.63763    0.32778    1.000
    Si3672   Si       0.61365    0.71052    0.28961    1.000
    N3673    N        0.59650    0.70982    0.34699    1.000
    Si3674   Si       0.57876    0.67213    0.32922    1.000
    N3675    N        0.60670    0.75382    0.28853    1.000
    N3676    N        0.57770    0.68597    0.28872    1.000
    Si3677   Si       0.62673    0.56683    0.36993    1.000
    N3678    N        0.57885    0.60172    0.43938    1.000
    N3679    N        0.62557    0.60632    0.38662    1.000
    N3680    N        0.59329    0.54587    0.38333    1.000
    Si3681   Si       0.61741    0.61522    0.42809    1.000
    N3682    N        0.58870    0.72413    0.41158    1.000
    N3683    N        0.58291    0.70247    0.47456    1.000
    Si3684   Si       0.58626    0.68669    0.43350    1.000
    N3685    N        0.61999    0.65930    0.43111    1.000
    Si3686   Si       0.62192    0.74386    0.42609    1.000
    N3687    N        0.63342    0.75230    0.46852    1.000
    N3688    N        0.61128    0.56214    0.55765    1.000
    Si3689   Si       0.59053    0.59609    0.53894    1.000
    Si3690   Si       0.58911    0.52930    0.57412    1.000
    N3691    N        0.58522    0.62298    0.57261    1.000
    N3692    N        0.60989    0.61284    0.50262    1.000
    Si3693   Si       0.62266    0.63112    0.58997    1.000
    N3694    N        0.62132    0.74089    0.57339    1.000
    Si3695   Si       0.61246    0.70051    0.55627    1.000
    N3696    N        0.63204    0.70815    0.51952    1.000
    N3697    N        0.63216    0.67429    0.58575    1.000
    Si3698   Si       0.60676    0.73273    0.49469    1.000
    N3699    N        0.58867    0.55960    0.73702    1.000
    Si3700   Si       0.61168    0.56286    0.70060    1.000
    N3701    N        0.63307    0.60120    0.69750    1.000
    N3702    N        0.58124    0.57080    0.67046    1.000
    N3703    N        0.58272    0.63961    0.66465    1.000
    Si3704   Si       0.57840    0.73202    0.68161    1.000
    N3705    N        0.59781    0.74262    0.71947    1.000
    Si3706   Si       0.62434    0.63162    0.66783    1.000
    N3707    N        0.60239    0.71077    0.65137    1.000
    N3708    N        0.60277    0.57206    0.83525    1.000
    N3709    N        0.59396    0.61653    0.78718    1.000
    Si3710   Si       0.62280    0.53950    0.81409    1.000
    N3711    N        0.60097    0.51234    0.78816    1.000
    Si3712   Si       0.57686    0.51822    0.75352    1.000
    Si3713   Si       0.62988    0.58295    0.87001    1.000
    Si3714   Si       0.63467    0.60769    0.80627    1.000
    N3715    N        0.63190    0.50655    0.84361    1.000
    N3716    N        0.60319    0.68030    0.80384    1.000
    N3717    N        0.60618    0.67057    0.87086    1.000
    N3718    N        0.59300    0.53400    0.95177    1.000
    N3719    N        0.61187    0.60867    0.96857    1.000
    N3720    N        0.60552    0.58723    0.90601    1.000
    Si3721   Si       0.59172    0.57732    0.94469    1.000
    N3722    N        0.58596    0.73651    0.98085    1.000
    Si3723   Si       0.63283    0.67836    0.97651    1.000
    Si3724   Si       0.59030    0.67824    0.91059    1.000
    Si3725   Si       0.59219    0.75087    0.93896    1.000
    N3726    N        0.59279    0.66945    0.98875    1.000
    N3727    N        0.62692    0.68578    0.93307    1.000
    Si3728   Si       0.61759    0.79011    0.04995    1.000
    N3729    N        0.59600    0.79560    0.01339    1.000
    N3730    N        0.58814    0.79887    0.08152    1.000
    Si3731   Si       0.60164    0.83840    0.99962    1.000
    N3732    N        0.58207    0.85265    0.03528    1.000
    Si3733   Si       0.60083    0.98616    0.02317    1.000
    Si3734   Si       0.61785    0.91797    0.10523    1.000
    Si3735   Si       0.60938    0.99088    0.09502    1.000
    N3736    N        0.58045    0.91698    0.08160    1.000
    N3737    N        0.63103    0.95593    0.01740    1.000
    N3738    N        0.63474    0.95565    0.09058    1.000
    Si3739   Si       0.63739    0.87424    0.20617    1.000
    Si3740   Si       0.59118    0.79960    0.12563    1.000
    N3741    N        0.60198    0.79765    0.19958    1.000
    N3742    N        0.59459    0.86973    0.19809    1.000
    N3743    N        0.63157    0.77837    0.13156    1.000
    Si3744   Si       0.58615    0.75979    0.18222    1.000
    Si3745   Si       0.58536    0.96047    0.22382    1.000
    N3746    N        0.61163    0.91757    0.14881    1.000
    N3747    N        0.61116    0.97155    0.19156    1.000
    Si3748   Si       0.59077    0.78670    0.31496    1.000
    N3749    N        0.58899    0.87090    0.34499    1.000
    N3750    N        0.63220    0.80540    0.31497    1.000
    N3751    N        0.59119    0.88887    0.27678    1.000
    Si3752   Si       0.60163    0.93532    0.35338    1.000
    Si3753   Si       0.62597    0.91551    0.28341    1.000
    N3754    N        0.60785    0.95101    0.26119    1.000
    N3755    N        0.61559    0.97596    0.36453    1.000
    Si3756   Si       0.58830    0.00640    0.34633    1.000
    Si3757   Si       0.63290    0.98488    0.26826    1.000
    N3758    N        0.63334    0.93380    0.32317    1.000
    N3759    N        0.58534    0.80964    0.46725    1.000
    Si3760   Si       0.59757    0.80864    0.42522    1.000
    N3761    N        0.62534    0.78163    0.40555    1.000
    Si3762   Si       0.61778    0.86803    0.37511    1.000
    N3763    N        0.61033    0.84812    0.41491    1.000
    Si3764   Si       0.62486    0.86939    0.44803    1.000
    N3765    N        0.63596    0.84779    0.48367    1.000
    N3766    N        0.59366    0.89964    0.45726    1.000
    N3767    N        0.60061    0.98982    0.47626    1.000
    N3768    N        0.60935    0.91020    0.39211    1.000
    N3769    N        0.62086    0.80081    0.53394    1.000
    Si3770   Si       0.59294    0.77045    0.55433    1.000
    Si3771   Si       0.60206    0.82819    0.50294    1.000
    N3772    N        0.58298    0.87340    0.58423    1.000
    Si3773   Si       0.60809    0.90884    0.57421    1.000
    N3774    N        0.61777    0.90761    0.53261    1.000
    N3775    N        0.58511    0.94513    0.58068    1.000
    Si3776   Si       0.58719    0.90020    0.50058    1.000
    Si3777   Si       0.58530    0.85955    0.62437    1.000
    Si3778   Si       0.62429    0.83632    0.73509    1.000
    N3779    N        0.62512    0.78116    0.63536    1.000
    N3780    N        0.62529    0.84894    0.63399    1.000
    N3781    N        0.58764    0.86069    0.73578    1.000
    Si3782   Si       0.58292    0.78158    0.62667    1.000
    Si3783   Si       0.62941    0.96707    0.65605    1.000
    N3784    N        0.58782    0.95774    0.66209    1.000
    Si3785   Si       0.58398    0.91390    0.67670    1.000
    N3786    N        0.62564    0.90593    0.67455    1.000
    N3787    N        0.61591    0.84271    0.85149    1.000
    N3788    N        0.61168    0.80113    0.75812    1.000
    Si3789   Si       0.58958    0.76466    0.84548    1.000
    N3790    N        0.62459    0.75802    0.82030    1.000
    N3791    N        0.59545    0.96178    0.81336    1.000
    Si3792   Si       0.59840    0.98839    0.77876    1.000
    Si3793   Si       0.62567    0.97824    0.84289    1.000
    Si3794   Si       0.58571    0.90104    0.75015    1.000
    N3795    N        0.62659    0.91678    0.74563    1.000
    N3796    N        0.60652    0.78183    0.88293    1.000
    Si3797   Si       0.60772    0.82498    0.88862    1.000
    N3798    N        0.57765    0.85377    0.96722    1.000
    N3799    N        0.63368    0.75946    0.93782    1.000
    Si3800   Si       0.59535    0.93127    0.89018    1.000
    N3801    N        0.62881    0.90058    0.96751    1.000
    N3802    N        0.59142    0.00631    0.98557    1.000
    N3803    N        0.63035    0.95591    0.88068    1.000
    Si3804   Si       0.61885    0.00512    0.95108    1.000
    Si3805   Si       0.58642    0.89539    0.95787    1.000
    N3806    N        0.58889    0.89682    0.91461    1.000
    N3807    N        0.67509    0.10207    0.04199    1.000
    N3808    N        0.66900    0.04994    0.08456    1.000
    N3809    N        0.67585    0.12031    0.10857    1.000
    N3810    N        0.66050    0.04019    0.01070    1.000
    Si3811   Si       0.65978    0.02621    0.05141    1.000
    Si3812   Si       0.69038    0.08899    0.08199    1.000
    N3813    N        0.66646    0.20768    0.02089    1.000
    N3814    N        0.64937    0.18479    0.08693    1.000
    Si3815   Si       0.68034    0.20235    0.11297    1.000
    Si3816   Si       0.64169    0.14456    0.10095    1.000
    N3817    N        0.64200    0.25567    0.06208    1.000
    N3818    N        0.68057    0.24445    0.11977    1.000
    Si3819   Si       0.63729    0.21291    0.05470    1.000
    Si3820   Si       0.69805    0.23804    0.01610    1.000
    N3821    N        0.65795    0.01274    0.17943    1.000
    Si3822   Si       0.66704    0.03413    0.12451    1.000
    N3823    N        0.68464    0.05804    0.22377    1.000
    N3824    N        0.67091    0.06980    0.15134    1.000
    Si3825   Si       0.65904    0.05487    0.18947    1.000
    Si3826   Si       0.68970    0.10707    0.14737    1.000
    N3827    N        0.67671    0.13356    0.18173    1.000
    N3828    N        0.66842    0.19679    0.15466    1.000
    Si3829   Si       0.64777    0.16261    0.17021    1.000
    Si3830   Si       0.63753    0.13899    0.23807    1.000
    Si3831   Si       0.67203    0.23813    0.16100    1.000
    N3832    N        0.65988    0.06920    0.28948    1.000
    N3833    N        0.67728    0.05909    0.35276    1.000
    N3834    N        0.67660    0.12621    0.32975    1.000
    Si3835   Si       0.68553    0.08681    0.32083    1.000
    Si3836   Si       0.66111    0.08377    0.25014    1.000
    N3837    N        0.67855    0.12385    0.24727    1.000
    Si3838   Si       0.63771    0.06069    0.37173    1.000
    Si3839   Si       0.65660    0.13481    0.36749    1.000
    Si3840   Si       0.65958    0.16408    0.31022    1.000
    Si3841   Si       0.68338    0.24874    0.35318    1.000
    Si3842   Si       0.66714    0.23681    0.29465    1.000
    N3843    N        0.64227    0.24045    0.33063    1.000
    N3844    N        0.68880    0.19440    0.29761    1.000
    N3845    N        0.63592    0.16900    0.34788    1.000
    N3846    N        0.65438    0.25973    0.26002    1.000
    N3847    N        0.64114    0.03387    0.40481    1.000
    Si3848   Si       0.65390    0.05001    0.44296    1.000
    N3849    N        0.67982    0.08722    0.44127    1.000
    Si3850   Si       0.65519    0.12493    0.43550    1.000
    N3851    N        0.67122    0.01273    0.45893    1.000
    Si3852   Si       0.67688    0.22727    0.45355    1.000
    Si3853   Si       0.67871    0.19392    0.40023    1.000
    N3854    N        0.64867    0.21840    0.41898    1.000
    N3855    N        0.67615    0.20676    0.49204    1.000
    N3856    N        0.66821    0.15162    0.40527    1.000
    N3857    N        0.66307    0.14229    0.47709    1.000
    N3858    N        0.66674    0.07030    0.53970    1.000
    Si3859   Si       0.64826    0.03634    0.55952    1.000
    N3860    N        0.67721    0.02090    0.58632    1.000
    Si3861   Si       0.63534    0.10093    0.55059    1.000
    N3862    N        0.63907    0.00918    0.52705    1.000
    N3863    N        0.65998    0.13612    0.54471    1.000
    Si3864   Si       0.67783    0.22781    0.53011    1.000
    N3865    N        0.66727    0.20503    0.56668    1.000
    Si3866   Si       0.63483    0.14575    0.50927    1.000
    Si3867   Si       0.67516    0.06633    0.69315    1.000
    N3868    N        0.65971    0.09058    0.72945    1.000
    N3869    N        0.67490    0.02893    0.71484    1.000
    N3870    N        0.63332    0.07104    0.67375    1.000
    N3871    N        0.64276    0.14532    0.66628    1.000
    N3872    N        0.68663    0.20397    0.64230    1.000
    Si3873   Si       0.67193    0.23196    0.67299    1.000
    Si3874   Si       0.69082    0.21592    0.73089    1.000
    N3875    N        0.66182    0.19735    0.70114    1.000
    Si3876   Si       0.67972    0.16916    0.66717    1.000
    Si3877   Si       0.66938    0.09308    0.77055    1.000
    N3878    N        0.64906    0.05452    0.78789    1.000
    N3879    N        0.66438    0.12098    0.80363    1.000
    Si3880   Si       0.64683    0.02925    0.74954    1.000
    N3881    N        0.68009    0.23253    0.76900    1.000
    N3882    N        0.68561    0.16106    0.85650    1.000
    Si3883   Si       0.64307    0.25275    0.77478    1.000
    Si3884   Si       0.64422    0.16500    0.86291    1.000
    Si3885   Si       0.67667    0.03575    0.92669    1.000
    N3886    N        0.68995    0.13109    0.92550    1.000
    Si3887   Si       0.64225    0.07270    0.98540    1.000
    N3888    N        0.63682    0.04463    0.94924    1.000
    N3889    N        0.69016    0.08549    0.97779    1.000
    N3890    N        0.65847    0.24909    0.93164    1.000
    Si3891   Si       0.64783    0.13650    0.93297    1.000
    N3892    N        0.64728    0.17683    0.95233    1.000
    Si3893   Si       0.66051    0.20605    0.92440    1.000
    Si3894   Si       0.66012    0.17262    0.99391    1.000
    N3895    N        0.66898    0.36191    0.08872    1.000
    Si3896   Si       0.65412    0.36979    0.01254    1.000
    Si3897   Si       0.68017    0.26417    0.08087    1.000
    N3898    N        0.67332    0.32972    0.00730    1.000
    Si3899   Si       0.64443    0.29785    0.99652    1.000
    N3900    N        0.68516    0.39628    0.02845    1.000
    Si3901   Si       0.68596    0.39882    0.07128    1.000
    N3902    N        0.64505    0.41661    0.08009    1.000
    N3903    N        0.68982    0.32151    0.15239    1.000
    N3904    N        0.64830    0.36887    0.19173    1.000
    Si3905   Si       0.65603    0.32806    0.17765    1.000
    N3906    N        0.67570    0.30491    0.21084    1.000
    Si3907   Si       0.68030    0.39871    0.19383    1.000
    Si3908   Si       0.68500    0.46450    0.22856    1.000
    N3909    N        0.66360    0.43716    0.20131    1.000
    N3910    N        0.66516    0.50145    0.22273    1.000
    N3911    N        0.67184    0.37702    0.30117    1.000
    Si3912   Si       0.66677    0.30249    0.25412    1.000
    N3913    N        0.63762    0.33388    0.36583    1.000
    Si3914   Si       0.68649    0.38889    0.34039    1.000
    Si3915   Si       0.67289    0.40574    0.26706    1.000
    N3916    N        0.67768    0.44942    0.26938    1.000
    Si3917   Si       0.65593    0.46336    0.30355    1.000
    N3918    N        0.66757    0.45775    0.34333    1.000
    N3919    N        0.66046    0.50747    0.29995    1.000
    N3920    N        0.65109    0.39864    0.36542    1.000
    N3921    N        0.68631    0.28382    0.37542    1.000
    N3922    N        0.68969    0.26721    0.46669    1.000
    Si3923   Si       0.67925    0.32563    0.37695    1.000
    Si3924   Si       0.65443    0.28216    0.48903    1.000
    N3925    N        0.68708    0.33508    0.41948    1.000
    N3926    N        0.65248    0.32521    0.48169    1.000
    Si3927   Si       0.64990    0.34296    0.44182    1.000
    Si3928   Si       0.63466    0.48219    0.44106    1.000
    Si3929   Si       0.64272    0.41417    0.47912    1.000
    N3930    N        0.66278    0.45926    0.41620    1.000
    N3931    N        0.65598    0.38575    0.44864    1.000
    Si3932   Si       0.64538    0.44027    0.37864    1.000
    Si3933   Si       0.65592    0.29712    0.55618    1.000
    N3934    N        0.64607    0.29430    0.59702    1.000
    N3935    N        0.65279    0.26539    0.52782    1.000
    N3936    N        0.65555    0.38188    0.60704    1.000
    N3937    N        0.65291    0.43506    0.55647    1.000
    Si3938   Si       0.64391    0.47815    0.55581    1.000
    N3939    N        0.68118    0.49802    0.56748    1.000
    Si3940   Si       0.69249    0.42381    0.53951    1.000
    N3941    N        0.68306    0.41667    0.49784    1.000
    Si3942   Si       0.66502    0.29152    0.63727    1.000
    N3943    N        0.65130    0.35572    0.72595    1.000
    N3944    N        0.65507    0.32894    0.65800    1.000
    Si3945   Si       0.67698    0.35013    0.68952    1.000
    N3946    N        0.64407    0.26077    0.65952    1.000
    N3947    N        0.69517    0.42373    0.73831    1.000
    Si3948   Si       0.65955    0.44686    0.72696    1.000
    Si3949   Si       0.65051    0.42713    0.65290    1.000
    N3950    N        0.67459    0.48656    0.73809    1.000
    N3951    N        0.64659    0.38926    0.67323    1.000
    N3952    N        0.68132    0.49558    0.63762    1.000
    N3953    N        0.69035    0.42980    0.63386    1.000
    N3954    N        0.64518    0.45680    0.68567    1.000
    Si3955   Si       0.66989    0.28986    0.83477    1.000
    N3956    N        0.66157    0.32832    0.84694    1.000
    Si3957   Si       0.66359    0.37085    0.76642    1.000
    N3958    N        0.63807    0.26984    0.81527    1.000
    N3959    N        0.65218    0.28822    0.75006    1.000
    N3960    N        0.67377    0.39817    0.79874    1.000
    N3961    N        0.67447    0.44261    0.85168    1.000
    Si3962   Si       0.64779    0.41636    0.82810    1.000
    Si3963   Si       0.68783    0.34955    0.87517    1.000
    N3964    N        0.66229    0.36059    0.90795    1.000
    Si3965   Si       0.65634    0.34061    0.94529    1.000
    Si3966   Si       0.68927    0.26954    0.95333    1.000
    N3967    N        0.67411    0.26737    0.99375    1.000
    N3968    N        0.63991    0.37221    0.97046    1.000
    Si3969   Si       0.66872    0.44604    0.89527    1.000
    Si3970   Si       0.66351    0.49271    0.94955    1.000
    N3971    N        0.66147    0.48743    0.90550    1.000
    N3972    N        0.65411    0.55024    0.07521    1.000
    N3973    N        0.66323    0.58165    0.00881    1.000
    N3974    N        0.69310    0.52125    0.02624    1.000
    Si3975   Si       0.66078    0.53866    0.00188    1.000
    Si3976   Si       0.63915    0.57409    0.10708    1.000
    N3977    N        0.67995    0.63876    0.04992    1.000
    Si3978   Si       0.64440    0.64442    0.07673    1.000
    N3979    N        0.68373    0.70539    0.06763    1.000
    Si3980   Si       0.64624    0.71184    0.04348    1.000
    N3981    N        0.66141    0.65685    0.11299    1.000
    Si3982   Si       0.68814    0.69032    0.11032    1.000
    N3983    N        0.64864    0.71215    0.99959    1.000
    N3984    N        0.66498    0.59256    0.13628    1.000
    Si3985   Si       0.66453    0.53015    0.19176    1.000
    N3986    N        0.67085    0.51860    0.15004    1.000
    N3987    N        0.68993    0.56433    0.19766    1.000
    Si3988   Si       0.65156    0.63324    0.14972    1.000
    Si3989   Si       0.69297    0.72740    0.15982    1.000
    N3990    N        0.65958    0.71780    0.13235    1.000
    N3991    N        0.68293    0.72685    0.20281    1.000
    N3992    N        0.67630    0.66004    0.23641    1.000
    Si3993   Si       0.64013    0.73059    0.22293    1.000
    N3994    N        0.68070    0.61295    0.34905    1.000
    Si3995   Si       0.68236    0.63121    0.26905    1.000
    Si3996   Si       0.64215    0.63074    0.35723    1.000
    N3997    N        0.63877    0.62355    0.27089    1.000
    N3998    N        0.65030    0.70561    0.31113    1.000
    N3999    N        0.66748    0.74261    0.36719    1.000
    Si4000   Si       0.64265    0.70947    0.35481    1.000
    Si4001   Si       0.69146    0.69882    0.30314    1.000
    N4002    N        0.66455    0.55422    0.38722    1.000
    N4003    N        0.65179    0.59128    0.44638    1.000
    N4004    N        0.65415    0.52073    0.45329    1.000
    Si4005   Si       0.67306    0.55492    0.43215    1.000
    Si4006   Si       0.65032    0.60524    0.48681    1.000
    Si4007   Si       0.67476    0.73994    0.45804    1.000
    N4008    N        0.69345    0.70842    0.48098    1.000
    Si4009   Si       0.65835    0.67399    0.41494    1.000
    N4010    N        0.65321    0.67076    0.37191    1.000
    N4011    N        0.65366    0.71541    0.42511    1.000
    Si4012   Si       0.65334    0.57342    0.55150    1.000
    N4013    N        0.65991    0.56811    0.50791    1.000
    N4014    N        0.65201    0.61745    0.56092    1.000
    Si4015   Si       0.69027    0.52683    0.60250    1.000
    N4016    N        0.69227    0.56150    0.56852    1.000
    Si4017   Si       0.66271    0.52320    0.49891    1.000
    Si4018   Si       0.68209    0.64318    0.54070    1.000
    Si4019   Si       0.67328    0.68796    0.59101    1.000
    Si4020   Si       0.67632    0.71579    0.52017    1.000
    N4021    N        0.68597    0.68604    0.54829    1.000
    N4022    N        0.68296    0.75899    0.52154    1.000
    Si4023   Si       0.64755    0.75595    0.60471    1.000
    N4024    N        0.67464    0.64043    0.49696    1.000
    N4025    N        0.65576    0.55123    0.62053    1.000
    Si4026   Si       0.64552    0.51723    0.64661    1.000
    Si4027   Si       0.67213    0.59039    0.63200    1.000
    Si4028   Si       0.67431    0.59422    0.70749    1.000
    Si4029   Si       0.67511    0.52110    0.71159    1.000
    N4030    N        0.67534    0.56054    0.73279    1.000
    N4031    N        0.63986    0.53290    0.68676    1.000
    N4032    N        0.69070    0.58041    0.67042    1.000
    N4033    N        0.63817    0.61896    0.62883    1.000
    N4034    N        0.68830    0.63146    0.72492    1.000
    Si4035   Si       0.67233    0.67161    0.71503    1.000
    N4036    N        0.66182    0.73048    0.69240    1.000
    N4037    N        0.66398    0.72022    0.62091    1.000
    N4038    N        0.64873    0.66669    0.67800    1.000
    Si4039   Si       0.64467    0.70433    0.65762    1.000
    N4040    N        0.64631    0.69065    0.74714    1.000
    Si4041   Si       0.64016    0.73292    0.72884    1.000
    N4042    N        0.65280    0.56769    0.79805    1.000
    N4043    N        0.64483    0.61826    0.84796    1.000
    Si4044   Si       0.68803    0.56556    0.77484    1.000
    N4045    N        0.66053    0.63747    0.78646    1.000
    Si4046   Si       0.64813    0.66105    0.85577    1.000
    N4047    N        0.66199    0.69031    0.82591    1.000
    Si4048   Si       0.65717    0.73190    0.83368    1.000
    Si4049   Si       0.64513    0.67921    0.78814    1.000
    Si4050   Si       0.66670    0.51155    0.86953    1.000
    N4051    N        0.68383    0.59650    0.94018    1.000
    N4052    N        0.66101    0.55385    0.88290    1.000
    Si4053   Si       0.67853    0.55553    0.92266    1.000
    N4054    N        0.66419    0.53536    0.95898    1.000
    Si4055   Si       0.65677    0.60769    0.97245    1.000
    Si4056   Si       0.66405    0.70284    0.91039    1.000
    Si4057   Si       0.66046    0.74281    0.96873    1.000
    N4058    N        0.65510    0.73147    0.87984    1.000
    N4059    N        0.67910    0.66972    0.88687    1.000
    N4060    N        0.66375    0.64951    0.97812    1.000
    N4061    N        0.68606    0.72300    0.94095    1.000
    N4062    N        0.65236    0.81724    0.04835    1.000
    Si4063   Si       0.67014    0.81341    0.00820    1.000
    Si4064   Si       0.68757    0.81951    0.07759    1.000
    N4065    N        0.68014    0.82559    0.12008    1.000
    N4066    N        0.64772    0.88611    0.09952    1.000
    Si4067   Si       0.65656    0.95455    0.05453    1.000
    N4068    N        0.68528    0.98859    0.04756    1.000
    N4069    N        0.68273    0.91958    0.05236    1.000
    Si4070   Si       0.68874    0.89192    0.08457    1.000
    Si4071   Si       0.67205    0.86607    0.13374    1.000
    N4072    N        0.67469    0.80259    0.19122    1.000
    Si4073   Si       0.66779    0.79503    0.14784    1.000
    N4074    N        0.66516    0.86414    0.17629    1.000
    N4075    N        0.64576    0.84357    0.23689    1.000
    N4076    N        0.65183    0.77029    0.24051    1.000
    Si4077   Si       0.68946    0.76917    0.21642    1.000
    Si4078   Si       0.63944    0.80625    0.21859    1.000
    Si4079   Si       0.69167    0.99127    0.16807    1.000
    N4080    N        0.67810    0.94986    0.16068    1.000
    Si4081   Si       0.67688    0.92823    0.23956    1.000
    Si4082   Si       0.63802    0.94151    0.17702    1.000
    N4083    N        0.64623    0.91715    0.21053    1.000
    Si4084   Si       0.67894    0.86007    0.26132    1.000
    Si4085   Si       0.66683    0.82823    0.33342    1.000
    N4086    N        0.65605    0.86372    0.35537    1.000
    Si4087   Si       0.64569    0.77407    0.28519    1.000
    N4088    N        0.68582    0.80203    0.36413    1.000
    N4089    N        0.68763    0.76944    0.30116    1.000
    N4090    N        0.69162    0.84223    0.29944    1.000
    Si4091   Si       0.69044    0.88518    0.36679    1.000
    Si4092   Si       0.66389    0.96455    0.33362    1.000
    N4093    N        0.66560    0.90087    0.27104    1.000
    N4094    N        0.65567    0.99820    0.30642    1.000
    N4095    N        0.67019    0.97079    0.25114    1.000
    N4096    N        0.67953    0.98777    0.36873    1.000
    Si4097   Si       0.66591    0.77657    0.39421    1.000
    N4098    N        0.68719    0.77222    0.43121    1.000
    N4099    N        0.68015    0.92395    0.37986    1.000
    N4100    N        0.64364    0.96091    0.42605    1.000
    Si4101   Si       0.64234    0.97990    0.46610    1.000
    Si4102   Si       0.64336    0.99283    0.39401    1.000
    N4103    N        0.66114    0.88803    0.43346    1.000
    Si4104   Si       0.64789    0.92230    0.41002    1.000
    N4105    N        0.66079    0.95441    0.49560    1.000
    N4106    N        0.67191    0.78402    0.58251    1.000
    Si4107   Si       0.66267    0.79288    0.54012    1.000
    N4108    N        0.69178    0.82583    0.53182    1.000
    Si4109   Si       0.67737    0.84810    0.49778    1.000
    N4110    N        0.68321    0.88978    0.50794    1.000
    Si4111   Si       0.67426    0.93019    0.59748    1.000
    Si4112   Si       0.65625    0.92029    0.52239    1.000
    N4113    N        0.66756    0.94476    0.55676    1.000
    Si4114   Si       0.67133    0.98010    0.53030    1.000
    N4115    N        0.64225    0.90159    0.60141    1.000
    N4116    N        0.64426    0.83212    0.69524    1.000
    N4117    N        0.68924    0.81434    0.64053    1.000
    Si4118   Si       0.64668    0.81517    0.65211    1.000
    Si4119   Si       0.67854    0.86372    0.70392    1.000
    N4120    N        0.68713    0.87802    0.65972    1.000
    Si4121   Si       0.64702    0.92632    0.70748    1.000
    N4122    N        0.66010    0.95966    0.62501    1.000
    Si4123   Si       0.68637    0.99140    0.69493    1.000
    N4124    N        0.68421    0.90744    0.71722    1.000
    N4125    N        0.65393    0.96516    0.69129    1.000
    Si4126   Si       0.67021    0.00202    0.62302    1.000
    Si4127   Si       0.64714    0.88481    0.64081    1.000
    N4128    N        0.66199    0.81724    0.80499    1.000
    N4129    N        0.68147    0.85608    0.85451    1.000
    Si4130   Si       0.64790    0.85486    0.82764    1.000
    Si4131   Si       0.68721    0.79736    0.83968    1.000
    Si4132   Si       0.68820    0.83661    0.77451    1.000
    N4133    N        0.66163    0.85809    0.74673    1.000
    N4134    N        0.68980    0.75725    0.81985    1.000
    Si4135   Si       0.63954    0.78137    0.78699    1.000
    N4136    N        0.66070    0.75242    0.76135    1.000
    N4137    N        0.63965    0.88714    0.80303    1.000
    Si4138   Si       0.67566    0.97253    0.78577    1.000
    N4139    N        0.66593    0.97926    0.82706    1.000
    Si4140   Si       0.66042    0.90037    0.76716    1.000
    N4141    N        0.68776    0.93185    0.77950    1.000
    Si4142   Si       0.69041    0.99996    0.85676    1.000
    N4143    N        0.63886    0.98831    0.76503    1.000
    Si4144   Si       0.64536    0.76975    0.89587    1.000
    Si4145   Si       0.64624    0.86336    0.95120    1.000
    Si4146   Si       0.68051    0.84705    0.89645    1.000
    N4147    N        0.67822    0.79693    0.88337    1.000
    N4148    N        0.64137    0.83735    0.98434    1.000
    N4149    N        0.68234    0.87506    0.93187    1.000
    N4150    N        0.63711    0.83947    0.91530    1.000
    N4151    N        0.67519    0.77166    0.99708    1.000
    Si4152   Si       0.64740    0.93790    0.98175    1.000
    N4153    N        0.69048    0.93086    0.98388    1.000
    N4154    N        0.67295    0.00555    0.89735    1.000
    Si4155   Si       0.66004    0.96457    0.91139    1.000
    N4156    N        0.64350    0.97003    0.95098    1.000
    N4157    N        0.72624    0.03968    0.02656    1.000
    N4158    N        0.73277    0.08157    0.07930    1.000
    Si4159   Si       0.70275    0.11272    0.00862    1.000
    N4160    N        0.74497    0.10989    0.02141    1.000
    Si4161   Si       0.75167    0.07072    0.04283    1.000
    N4162    N        0.71213    0.25370    0.05302    1.000
    N4163    N        0.71785    0.18576    0.10532    1.000
    Si4164   Si       0.73529    0.17931    0.99566    1.000
    N4165    N        0.69927    0.15396    0.99414    1.000
    N4166    N        0.75530    0.18148    0.03461    1.000
    Si4167   Si       0.72174    0.03299    0.22800    1.000
    N4168    N        0.73274    0.10523    0.14356    1.000
    N4169    N        0.73687    0.12856    0.20945    1.000
    N4170    N        0.70243    0.00918    0.12854    1.000
    Si4171   Si       0.69872    0.14677    0.21638    1.000
    N4172    N        0.70486    0.25026    0.18661    1.000
    Si4173   Si       0.72534    0.22401    0.21206    1.000
    N4174    N        0.70854    0.18632    0.22892    1.000
    N4175    N        0.72788    0.08816    0.30692    1.000
    Si4176   Si       0.74108    0.04450    0.29965    1.000
    N4177    N        0.71955    0.02069    0.27160    1.000
    N4178    N        0.73622    0.02309    0.33799    1.000
    Si4179   Si       0.70109    0.02561    0.36713    1.000
    Si4180   Si       0.74417    0.12650    0.31641    1.000
    N4181    N        0.74017    0.15800    0.34821    1.000
    Si4182   Si       0.72362    0.19473    0.32930    1.000
    Si4183   Si       0.72446    0.19874    0.26878    1.000
    N4184    N        0.73985    0.15176    0.27956    1.000
    N4185    N        0.72605    0.24293    0.25172    1.000
    N4186    N        0.70231    0.25782    0.31343    1.000
    N4187    N        0.69855    0.20909    0.36363    1.000
    N4188    N        0.75319    0.21203    0.30194    1.000
    N4189    N        0.75085    0.01043    0.45640    1.000
    N4190    N        0.71526    0.02723    0.40833    1.000
    Si4191   Si       0.72081    0.09882    0.45374    1.000
    N4192    N        0.72686    0.08185    0.49329    1.000
    N4193    N        0.75337    0.08037    0.43043    1.000
    Si4194   Si       0.75504    0.03675    0.42191    1.000
    Si4195   Si       0.74904    0.21814    0.42406    1.000
    Si4196   Si       0.69755    0.16699    0.48470    1.000
    N4197    N        0.72638    0.14185    0.46078    1.000
    N4198    N        0.70870    0.20564    0.43089    1.000
    N4199    N        0.72968    0.05296    0.60710    1.000
    Si4200   Si       0.70701    0.07455    0.53099    1.000
    N4201    N        0.72100    0.10539    0.55988    1.000
    N4202    N        0.74008    0.04744    0.54283    1.000
    Si4203   Si       0.72048    0.01861    0.57311    1.000
    Si4204   Si       0.74693    0.08603    0.58763    1.000
    N4205    N        0.73307    0.22526    0.59866    1.000
    N4206    N        0.71674    0.16592    0.52486    1.000
    N4207    N        0.70807    0.16065    0.59796    1.000
    N4208    N        0.71429    0.24748    0.53404    1.000
    Si4209   Si       0.70036    0.14314    0.55709    1.000
    Si4210   Si       0.69489    0.20353    0.60057    1.000
    N4211    N        0.74119    0.11525    0.73142    1.000
    N4212    N        0.71611    0.06856    0.67837    1.000
    Si4213   Si       0.72830    0.03883    0.64847    1.000
    Si4214   Si       0.74706    0.07909    0.70820    1.000
    N4215    N        0.74802    0.04208    0.73395    1.000
    Si4216   Si       0.73739    0.15240    0.70739    1.000
    N4217    N        0.69927    0.24697    0.70233    1.000
    Si4218   Si       0.73401    0.14880    0.62919    1.000
    N4219    N        0.72179    0.18406    0.73292    1.000
    N4220    N        0.71628    0.14844    0.66925    1.000
    N4221    N        0.70930    0.08111    0.78051    1.000
    N4222    N        0.72501    0.10907    0.85160    1.000
    Si4223   Si       0.74084    0.11072    0.77376    1.000
    Si4224   Si       0.70716    0.04280    0.79988    1.000
    N4225    N        0.69897    0.03940    0.84169    1.000
    Si4226   Si       0.69916    0.13420    0.82429    1.000
    N4227    N        0.73768    0.21364    0.79927    1.000
    N4228    N        0.72263    0.14653    0.78994    1.000
    Si4229   Si       0.74146    0.18146    0.77285    1.000
    Si4230   Si       0.71568    0.24879    0.78963    1.000
    N4231    N        0.75179    0.22605    0.86925    1.000
    Si4232   Si       0.71851    0.06940    0.86931    1.000
    N4233    N        0.69957    0.06731    0.90829    1.000
    Si4234   Si       0.70952    0.09398    0.93975    1.000
    N4235    N        0.70812    0.02245    0.95595    1.000
    Si4236   Si       0.70063    0.04428    0.99287    1.000
    N4237    N        0.75160    0.08995    0.95276    1.000
    Si4238   Si       0.75181    0.24554    0.96270    1.000
    N4239    N        0.74932    0.15113    0.89875    1.000
    N4240    N        0.70198    0.19791    0.91486    1.000
    N4241    N        0.72720    0.21921    0.98751    1.000
    Si4242   Si       0.70597    0.15756    0.89656    1.000
    Si4243   Si       0.73592    0.22390    0.90789    1.000
    Si4244   Si       0.73475    0.28692    0.07097    1.000
    N4245    N        0.74165    0.34641    0.11349    1.000
    N4246    N        0.75079    0.37973    0.04520    1.000
    Si4247   Si       0.69773    0.33765    0.11279    1.000
    Si4248   Si       0.75396    0.37930    0.08724    1.000
    N4249    N        0.69752    0.30300    0.08829    1.000
    N4250    N        0.74948    0.31261    0.04059    1.000
    Si4251   Si       0.72600    0.39343    0.01260    1.000
    N4252    N        0.72082    0.40917    0.09333    1.000
    Si4253   Si       0.71978    0.49794    0.00089    1.000
    N4254    N        0.74657    0.48082    0.03026    1.000
    Si4255   Si       0.70727    0.29344    0.18174    1.000
    Si4256   Si       0.73719    0.37766    0.24245    1.000
    N4257    N        0.75144    0.29594    0.17214    1.000
    Si4258   Si       0.72034    0.42723    0.13276    1.000
    Si4259   Si       0.70744    0.50525    0.13033    1.000
    N4260    N        0.70810    0.40101    0.16309    1.000
    N4261    N        0.69833    0.46396    0.12513    1.000
    N4262    N        0.69477    0.38665    0.23531    1.000
    N4263    N        0.72635    0.47452    0.22073    1.000
    Si4264   Si       0.70548    0.34884    0.30049    1.000
    N4265    N        0.70726    0.34984    0.34640    1.000
    N4266    N        0.73663    0.37424    0.28469    1.000
    Si4267   Si       0.72622    0.27467    0.28413    1.000
    N4268    N        0.70286    0.31292    0.27829    1.000
    Si4269   Si       0.74828    0.34784    0.36599    1.000
    N4270    N        0.71992    0.41541    0.33893    1.000
    N4271    N        0.72759    0.48366    0.31645    1.000
    Si4272   Si       0.71102    0.45622    0.34495    1.000
    Si4273   Si       0.73284    0.27463    0.46627    1.000
    Si4274   Si       0.72701    0.33987    0.43650    1.000
    N4275    N        0.72347    0.36283    0.47314    1.000
    N4276    N        0.74322    0.30142    0.43205    1.000
    N4277    N        0.74824    0.36537    0.40753    1.000
    Si4278   Si       0.69793    0.39487    0.46357    1.000
    N4279    N        0.71723    0.41739    0.43286    1.000
    N4280    N        0.73277    0.48095    0.44405    1.000
    Si4281   Si       0.70480    0.45795    0.42253    1.000
    N4282    N        0.72370    0.46844    0.38372    1.000
    Si4283   Si       0.71389    0.35221    0.56866    1.000
    N4284    N        0.71664    0.35263    0.61254    1.000
    Si4285   Si       0.72813    0.28893    0.53992    1.000
    Si4286   Si       0.74140    0.26670    0.61401    1.000
    N4287    N        0.69547    0.31597    0.55137    1.000
    N4288    N        0.74853    0.29395    0.50108    1.000
    N4289    N        0.75059    0.34925    0.54281    1.000
    Si4290   Si       0.70145    0.39480    0.61399    1.000
    N4291    N        0.70795    0.39558    0.56832    1.000
    N4292    N        0.72484    0.45281    0.54164    1.000
    Si4293   Si       0.71555    0.49283    0.54356    1.000
    N4294    N        0.74391    0.47191    0.61775    1.000
    N4295    N        0.71533    0.37667    0.69387    1.000
    N4296    N        0.70707    0.31506    0.70362    1.000
    N4297    N        0.70890    0.28035    0.64195    1.000
    Si4298   Si       0.72479    0.27683    0.68361    1.000
    Si4299   Si       0.74287    0.34228    0.70090    1.000
    Si4300   Si       0.69263    0.30268    0.74315    1.000
    N4301    N        0.72714    0.45415    0.68431    1.000
    Si4302   Si       0.72562    0.41638    0.70735    1.000
    Si4303   Si       0.74355    0.48927    0.70378    1.000
    Si4304   Si       0.71149    0.46507    0.64449    1.000
    N4305    N        0.75043    0.40070    0.63369    1.000
    Si4306   Si       0.73820    0.30275    0.84172    1.000
    Si4307   Si       0.73617    0.34905    0.77400    1.000
    N4308    N        0.70911    0.27483    0.82391    1.000
    N4309    N        0.72623    0.28064    0.76202    1.000
    N4310    N        0.74452    0.33647    0.81522    1.000
    Si4311   Si       0.74285    0.37800    0.82838    1.000
    N4312    N        0.69599    0.34156    0.76513    1.000
    N4313    N        0.71644    0.37978    0.86333    1.000
    Si4314   Si       0.70739    0.49084    0.76639    1.000
    N4315    N        0.73924    0.39398    0.78637    1.000
    Si4316   Si       0.71298    0.46499    0.83927    1.000
    N4317    N        0.74518    0.44320    0.85608    1.000
    N4318    N        0.71094    0.46017    0.79665    1.000
    Si4319   Si       0.70626    0.41987    0.78097    1.000
    N4320    N        0.70704    0.50475    0.85682    1.000
    N4321    N        0.74588    0.48635    0.74646    1.000
    N4322    N        0.73664    0.28148    0.98708    1.000
    N4323    N        0.71857    0.31648    0.87835    1.000
    Si4324   Si       0.72694    0.30411    0.91785    1.000
    N4325    N        0.73546    0.35805    0.98818    1.000
    Si4326   Si       0.71323    0.31945    0.98854    1.000
    N4327    N        0.72619    0.26102    0.92819    1.000
    N4328    N        0.69419    0.31401    0.94727    1.000
    Si4329   Si       0.72186    0.44503    0.94936    1.000
    Si4330   Si       0.73374    0.41114    0.88874    1.000
    N4331    N        0.75142    0.47267    0.93406    1.000
    N4332    N        0.70357    0.43018    0.91392    1.000
    N4333    N        0.73891    0.42608    0.98683    1.000
    N4334    N        0.69558    0.47520    0.97082    1.000
    N4335    N        0.71638    0.57941    0.06105    1.000
    N4336    N        0.71945    0.51682    0.08951    1.000
    Si4337   Si       0.69368    0.60291    0.03110    1.000
    Si4338   Si       0.69474    0.54208    0.06317    1.000
    N4339    N        0.71993    0.61673    0.99964    1.000
    N4340    N        0.74486    0.73714    0.09623    1.000
    N4341    N        0.72085    0.68412    0.01132    1.000
    Si4342   Si       0.70732    0.67304    0.05093    1.000
    N4343    N        0.73721    0.66542    0.08097    1.000
    N4344    N        0.74139    0.75032    0.01597    1.000
    N4345    N        0.74487    0.51291    0.15001    1.000
    Si4346   Si       0.71226    0.56585    0.23450    1.000
    N4347    N        0.73508    0.58321    0.15180    1.000
    Si4348   Si       0.69607    0.59250    0.16535    1.000
    Si4349   Si       0.74585    0.50938    0.23909    1.000
    Si4350   Si       0.70100    0.69343    0.22758    1.000
    N4351    N        0.71790    0.69481    0.14300    1.000
    N4352    N        0.74021    0.68229    0.21087    1.000
    Si4353   Si       0.72560    0.66069    0.17143    1.000
    N4354    N        0.69210    0.63361    0.17337    1.000
    Si4355   Si       0.72976    0.57647    0.29613    1.000
    N4356    N        0.71519    0.53013    0.26224    1.000
    N4357    N        0.74211    0.60982    0.32316    1.000
    N4358    N        0.70757    0.55288    0.32347    1.000
    Si4359   Si       0.70198    0.51695    0.30086    1.000
    N4360    N        0.70476    0.59626    0.26490    1.000
    Si4361   Si       0.69372    0.57347    0.36065    1.000
    Si4362   Si       0.71395    0.63841    0.33673    1.000
    N4363    N        0.70598    0.71538    0.26487    1.000
    N4364    N        0.71681    0.71975    0.32929    1.000
    Si4365   Si       0.74553    0.70641    0.35958    1.000
    Si4366   Si       0.71958    0.75270    0.27784    1.000
    N4367    N        0.73103    0.66658    0.36498    1.000
    N4368    N        0.69869    0.65589    0.30070    1.000
    Si4369   Si       0.70159    0.75964    0.34258    1.000
    N4370    N        0.73038    0.57806    0.38220    1.000
    Si4371   Si       0.74764    0.55425    0.41472    1.000
    N4372    N        0.71635    0.54773    0.44320    1.000
    Si4373   Si       0.72736    0.51515    0.46848    1.000
    Si4374   Si       0.70160    0.66624    0.47590    1.000
    N4375    N        0.75180    0.71164    0.40310    1.000
    N4376    N        0.69841    0.66303    0.43211    1.000
    Si4377   Si       0.73494    0.67017    0.40994    1.000
    N4378    N        0.74031    0.65369    0.49152    1.000
    Si4379   Si       0.71724    0.59447    0.58000    1.000
    N4380    N        0.71825    0.62269    0.54825    1.000
    N4381    N        0.74958    0.51380    0.55967    1.000
    N4382    N        0.70634    0.61182    0.61731    1.000
    N4383    N        0.70254    0.50789    0.50221    1.000
    Si4384   Si       0.74965    0.62025    0.52022    1.000
    N4385    N        0.71129    0.67947    0.61183    1.000
    N4386    N        0.74803    0.73404    0.53150    1.000
    Si4387   Si       0.73244    0.71788    0.61723    1.000
    N4388    N        0.72901    0.53989    0.62165    1.000
    N4389    N        0.71481    0.52153    0.69273    1.000
    Si4390   Si       0.72248    0.54994    0.66318    1.000
    N4391    N        0.73999    0.71837    0.66134    1.000
    Si4392   Si       0.73140    0.64597    0.62915    1.000
    N4393    N        0.70873    0.69465    0.71442    1.000
    Si4394   Si       0.70547    0.73024    0.68785    1.000
    N4395    N        0.74489    0.64708    0.67044    1.000
    N4396    N        0.72051    0.59465    0.77483    1.000
    N4397    N        0.71106    0.53011    0.78422    1.000
    N4398    N        0.73807    0.56437    0.84132    1.000
    Si4399   Si       0.74856    0.54591    0.80113    1.000
    Si4400   Si       0.75249    0.60444    0.85359    1.000
    Si4401   Si       0.69938    0.63176    0.76767    1.000
    N4402    N        0.73832    0.64231    0.83669    1.000
    N4403    N        0.72772    0.66395    0.77486    1.000
    N4404    N        0.73133    0.73056    0.77212    1.000
    Si4405   Si       0.73371    0.69642    0.74820    1.000
    Si4406   Si       0.73349    0.53408    0.87276    1.000
    N4407    N        0.73956    0.52958    0.98090    1.000
    N4408    N        0.73304    0.61655    0.89037    1.000
    Si4409   Si       0.72319    0.61167    0.93260    1.000
    N4410    N        0.72082    0.54564    0.91342    1.000
    Si4411   Si       0.70632    0.65401    0.98215    1.000
    Si4412   Si       0.72510    0.74107    0.93550    1.000
    Si4413   Si       0.71979    0.65727    0.87457    1.000
    N4414    N        0.74569    0.69030    0.88881    1.000
    N4415    N        0.72625    0.65255    0.94486    1.000
    N4416    N        0.75066    0.71405    0.95472    1.000
    N4417    N        0.73113    0.75703    0.89566    1.000
    N4418    N        0.71545    0.78631    0.07407    1.000
    Si4419   Si       0.73507    0.84969    0.03350    1.000
    N4420    N        0.71515    0.81883    0.01038    1.000
    N4421    N        0.70683    0.85750    0.06689    1.000
    Si4422   Si       0.72964    0.77449    0.11472    1.000
    Si4423   Si       0.74853    0.76147    0.05798    1.000
    N4424    N        0.73640    0.88708    0.00971    1.000
    Si4425   Si       0.71106    0.92000    0.01889    1.000
    Si4426   Si       0.72701    0.99689    0.03935    1.000
    N4427    N        0.73117    0.95125    0.11128    1.000
    Si4428   Si       0.73931    0.99483    0.11583    1.000
    N4429    N        0.74544    0.93979    0.04414    1.000
    N4430    N        0.74327    0.98406    0.99927    1.000
    N4431    N        0.70181    0.76824    0.14475    1.000
    N4432    N        0.70934    0.85322    0.23254    1.000
    N4433    N        0.73145    0.83998    0.16863    1.000
    N4434    N        0.72492    0.77406    0.23799    1.000
    Si4435   Si       0.75091    0.88051    0.14004    1.000
    Si4436   Si       0.69741    0.84073    0.19345    1.000
    N4437    N        0.70544    0.89096    0.12491    1.000
    N4438    N        0.72022    0.99906    0.19829    1.000
    Si4439   Si       0.71196    0.92923    0.14404    1.000
    N4440    N        0.71818    0.92842    0.22945    1.000
    N4441    N        0.74691    0.91567    0.16757    1.000
    Si4442   Si       0.73183    0.85634    0.31524    1.000
    N4443    N        0.73960    0.77326    0.35896    1.000
    N4444    N        0.75089    0.83522    0.34756    1.000
    N4445    N        0.71999    0.89390    0.33569    1.000
    Si4446   Si       0.73723    0.93110    0.32792    1.000
    N4447    N        0.70320    0.95751    0.31139    1.000
    N4448    N        0.74489    0.95906    0.36607    1.000
    Si4449   Si       0.69379    0.98869    0.28297    1.000
    N4450    N        0.69554    0.83390    0.46097    1.000
    Si4451   Si       0.72706    0.81540    0.37832    1.000
    Si4452   Si       0.71713    0.79741    0.44858    1.000
    N4453    N        0.70854    0.85835    0.39529    1.000
    N4454    N        0.74589    0.80710    0.41696    1.000
    N4455    N        0.73457    0.76776    0.47610    1.000
    Si4456   Si       0.70076    0.87031    0.43620    1.000
    Si4457   Si       0.73921    0.93750    0.45289    1.000
    N4458    N        0.71158    0.96215    0.43057    1.000
    Si4459   Si       0.70884    0.00139    0.44378    1.000
    N4460    N        0.72923    0.89485    0.45635    1.000
    Si4461   Si       0.70684    0.95775    0.38669    1.000
    N4462    N        0.73444    0.94089    0.49651    1.000
    N4463    N        0.73518    0.82860    0.59115    1.000
    Si4464   Si       0.70772    0.79749    0.60495    1.000
    Si4465   Si       0.73261    0.83623    0.54646    1.000
    Si4466   Si       0.72439    0.76979    0.52096    1.000
    N4467    N        0.74560    0.87374    0.52710    1.000
    N4468    N        0.75181    0.79938    0.53399    1.000
    N4469    N        0.72560    0.76094    0.61751    1.000
    N4470    N        0.71098    0.99150    0.53810    1.000
    N4471    N        0.71531    0.92561    0.61144    1.000
    Si4472   Si       0.74765    0.96661    0.52979    1.000
    N4473    N        0.74463    0.98920    0.59324    1.000
    Si4474   Si       0.74906    0.94682    0.59826    1.000
    Si4475   Si       0.72480    0.89913    0.49840    1.000
    N4476    N        0.74739    0.87018    0.63815    1.000
    N4477    N        0.72489    0.76817    0.69714    1.000
    Si4478   Si       0.72036    0.83912    0.65892    1.000
    Si4479   Si       0.73128    0.80367    0.72249    1.000
    N4480    N        0.71603    0.84011    0.70316    1.000
    Si4481   Si       0.74677    0.76745    0.65661    1.000
    N4482    N        0.70100    0.00750    0.65484    1.000
    N4483    N        0.71787    0.97133    0.71748    1.000
    Si4484   Si       0.72111    0.90296    0.64670    1.000
    Si4485   Si       0.72229    0.92796    0.71621    1.000
    N4486    N        0.74314    0.92094    0.67818    1.000
    Si4487   Si       0.73225    0.00385    0.74280    1.000
    N4488    N        0.72726    0.81162    0.83090    1.000
    Si4489   Si       0.72153    0.85440    0.83290    1.000
    N4490    N        0.71183    0.86948    0.79282    1.000
    N4491    N        0.70658    0.80028    0.75852    1.000
    Si4492   Si       0.70150    0.76066    0.77644    1.000
    Si4493   Si       0.72529    0.91066    0.78358    1.000
    N4494    N        0.72905    0.98690    0.86409    1.000
    N4495    N        0.74859    0.91400    0.74591    1.000
    N4496    N        0.70234    0.00620    0.77544    1.000
    N4497    N        0.74935    0.93064    0.81112    1.000
    Si4498   Si       0.71481    0.79449    0.90669    1.000
    N4499    N        0.72580    0.83567    0.90214    1.000
    N4500    N        0.72339    0.78154    0.95031    1.000
    Si4501   Si       0.71930    0.78010    0.99401    1.000
    N4502    N        0.69906    0.94094    0.91228    1.000
    Si4503   Si       0.74531    0.00215    0.96096    1.000
    Si4504   Si       0.70415    0.91315    0.94464    1.000
    Si4505   Si       0.73626    0.95734    0.89601    1.000
    N4506    N        0.74762    0.90472    0.94390    1.000
    N4507    N        0.79334    0.06506    0.04771    1.000
    N4508    N        0.79739    0.08327    0.11769    1.000
    Si4509   Si       0.75828    0.10154    0.10938    1.000
    N4510    N        0.80501    0.13245    0.03912    1.000
    N4511    N        0.76265    0.14125    0.09183    1.000
    Si4512   Si       0.76451    0.14150    0.04844    1.000
    N4513    N        0.77820    0.21159    0.09955    1.000
    Si4514   Si       0.77841    0.21247    0.05499    1.000
    Si4515   Si       0.79074    0.24898    0.11351    1.000
    N4516    N        0.78339    0.25167    0.03458    1.000
    Si4517   Si       0.75755    0.17759    0.11624    1.000
    N4518    N        0.78829    0.09602    0.18371    1.000
    Si4519   Si       0.79140    0.07309    0.22028    1.000
    N4520    N        0.76341    0.03882    0.21511    1.000
    Si4521   Si       0.75851    0.12445    0.17351    1.000
    Si4522   Si       0.76234    0.13949    0.24476    1.000
    Si4523   Si       0.78850    0.18593    0.18821    1.000
    N4524    N        0.80668    0.25201    0.15407    1.000
    N4525    N        0.76373    0.16501    0.15834    1.000
    N4526    N        0.76656    0.22275    0.19647    1.000
    N4527    N        0.79070    0.16409    0.22459    1.000
    N4528    N        0.78201    0.05125    0.28999    1.000
    N4529    N        0.78672    0.11451    0.31992    1.000
    Si4530   Si       0.80038    0.09125    0.28674    1.000
    N4531    N        0.78100    0.10198    0.25038    1.000
    Si4532   Si       0.78872    0.23794    0.29848    1.000
    N4533    N        0.80341    0.25091    0.33875    1.000
    N4534    N        0.80261    0.18752    0.36139    1.000
    N4535    N        0.78805    0.12062    0.38659    1.000
    Si4536   Si       0.79192    0.09697    0.42323    1.000
    N4537    N        0.78085    0.01967    0.39242    1.000
    N4538    N        0.80069    0.12481    0.45441    1.000
    Si4539   Si       0.81057    0.11024    0.49504    1.000
    Si4540   Si       0.80583    0.22953    0.37534    1.000
    Si4541   Si       0.76906    0.15601    0.45514    1.000
    Si4542   Si       0.77271    0.16109    0.37759    1.000
    N4543    N        0.75989    0.24099    0.46172    1.000
    N4544    N        0.76721    0.17984    0.41798    1.000
    Si4545   Si       0.79305    0.22396    0.48484    1.000
    N4546    N        0.77519    0.18313    0.48650    1.000
    N4547    N        0.76748    0.24381    0.39434    1.000
    N4548    N        0.78607    0.08694    0.56680    1.000
    N4549    N        0.77391    0.12265    0.51558    1.000
    Si4550   Si       0.76474    0.07944    0.52023    1.000
    N4551    N        0.80063    0.02396    0.58229    1.000
    Si4552   Si       0.80016    0.12864    0.55674    1.000
    N4553    N        0.75967    0.11547    0.62012    1.000
    N4554    N        0.79925    0.06760    0.49373    1.000
    Si4555   Si       0.75970    0.16456    0.52164    1.000
    N4556    N        0.80454    0.22164    0.59356    1.000
    N4557    N        0.79508    0.23569    0.52500    1.000
    N4558    N        0.77591    0.16675    0.56234    1.000
    Si4559   Si       0.76840    0.19782    0.59144    1.000
    Si4560   Si       0.80288    0.11737    0.62648    1.000
    N4561    N        0.78505    0.08313    0.68877    1.000
    Si4562   Si       0.80195    0.05177    0.66456    1.000
    N4563    N        0.76984    0.02454    0.65223    1.000
    N4564    N        0.81387    0.07514    0.63021    1.000
    N4565    N        0.77785    0.16414    0.70176    1.000
    N4566    N        0.76533    0.17892    0.63161    1.000
    Si4567   Si       0.79536    0.17466    0.66292    1.000
    Si4568   Si       0.80666    0.16533    0.73383    1.000
    N4569    N        0.78122    0.10726    0.79275    1.000
    Si4570   Si       0.77481    0.03505    0.76972    1.000
    N4571    N        0.79808    0.10838    0.86127    1.000
    Si4572   Si       0.76069    0.12959    0.86503    1.000
    N4573    N        0.75865    0.05004    0.86953    1.000
    Si4574   Si       0.75452    0.01579    0.84220    1.000
    N4575    N        0.75157    0.03806    0.80477    1.000
    Si4576   Si       0.79978    0.13153    0.82384    1.000
    Si4577   Si       0.78669    0.24843    0.86107    1.000
    N4578    N        0.78733    0.18145    0.77046    1.000
    N4579    N        0.77023    0.16069    0.83648    1.000
    N4580    N        0.79911    0.22273    0.82781    1.000
    Si4581   Si       0.76083    0.20244    0.83410    1.000
    Si4582   Si       0.79738    0.06516    0.87148    1.000
    N4583    N        0.80825    0.07535    0.91344    1.000
    Si4584   Si       0.77097    0.11334    0.98507    1.000
    Si4585   Si       0.78913    0.06528    0.95051    1.000
    N4586    N        0.77981    0.02862    0.96829    1.000
    N4587    N        0.80922    0.09010    0.98316    1.000
    Si4588   Si       0.77274    0.16605    0.93122    1.000
    N4589    N        0.76799    0.15616    0.97279    1.000
    Si4590   Si       0.80829    0.23100    0.92943    1.000
    N4591    N        0.77154    0.20976    0.92970    1.000
    N4592    N        0.81311    0.14815    0.92352    1.000
    Si4593   Si       0.77058    0.34673    0.02325    1.000
    Si4594   Si       0.77025    0.28434    0.01345    1.000
    N4595    N        0.76211    0.27920    0.10430    1.000
    N4596    N        0.81051    0.36064    0.03242    1.000
    Si4597   Si       0.76994    0.45073    0.00845    1.000
    N4598    N        0.79351    0.39503    0.09728    1.000
    N4599    N        0.78212    0.48446    0.09146    1.000
    N4600    N        0.79473    0.43339    0.04060    1.000
    Si4601   Si       0.81007    0.46622    0.06451    1.000
    Si4602   Si       0.81064    0.39752    0.05677    1.000
    Si4603   Si       0.76426    0.31227    0.13289    1.000
    N4604    N        0.76924    0.35210    0.22695    1.000
    N4605    N        0.80239    0.27977    0.22114    1.000
    Si4606   Si       0.80026    0.32206    0.22797    1.000
    N4607    N        0.80733    0.32288    0.13337    1.000
    Si4608   Si       0.77847    0.26352    0.18684    1.000
    Si4609   Si       0.79468    0.41480    0.13679    1.000
    Si4610   Si       0.79165    0.38788    0.21264    1.000
    N4611    N        0.79877    0.47511    0.21000    1.000
    N4612    N        0.79697    0.38682    0.17000    1.000
    Si4613   Si       0.77635    0.48611    0.13466    1.000
    Si4614   Si       0.76526    0.45476    0.22957    1.000
    N4615    N        0.75739    0.41325    0.22708    1.000
    N4616    N        0.76202    0.44380    0.13951    1.000
    Si4617   Si       0.78664    0.29248    0.33108    1.000
    N4618    N        0.76694    0.27936    0.29574    1.000
    N4619    N        0.77476    0.37240    0.34556    1.000
    N4620    N        0.76179    0.30653    0.36355    1.000
    N4621    N        0.79392    0.48395    0.33862    1.000
    Si4622   Si       0.77072    0.47141    0.30446    1.000
    N4623    N        0.78248    0.42860    0.29967    1.000
    N4624    N        0.77111    0.48261    0.26443    1.000
    Si4625   Si       0.80449    0.45160    0.36495    1.000
    Si4626   Si       0.75560    0.39854    0.31637    1.000
    Si4627   Si       0.77004    0.28913    0.40103    1.000
    N4628    N        0.79166    0.34826    0.48865    1.000
    N4629    N        0.81709    0.28967    0.40583    1.000
    Si4630   Si       0.75804    0.48082    0.40790    1.000
    Si4631   Si       0.75811    0.40470    0.42078    1.000
    Si4632   Si       0.79591    0.43212    0.48956    1.000
    Si4633   Si       0.80174    0.49492    0.49395    1.000
    N4634    N        0.77993    0.44103    0.40029    1.000
    N4635    N        0.78972    0.40543    0.44997    1.000
    Si4636   Si       0.77587    0.32582    0.56808    1.000
    N4637    N        0.78919    0.35059    0.60112    1.000
    Si4638   Si       0.79044    0.30495    0.50153    1.000
    Si4639   Si       0.75480    0.36780    0.50258    1.000
    N4640    N        0.80736    0.30920    0.54240    1.000
    N4641    N        0.74941    0.29230    0.58146    1.000
    N4642    N        0.78319    0.42126    0.58260    1.000
    N4643    N        0.76511    0.40951    0.51039    1.000
    N4644    N        0.79205    0.46782    0.52902    1.000
    Si4645   Si       0.76356    0.43658    0.54575    1.000
    Si4646   Si       0.80924    0.38568    0.58605    1.000
    Si4647   Si       0.79219    0.50141    0.55757    1.000
    N4648    N        0.79988    0.50355    0.60041    1.000
    N4649    N        0.76580    0.33329    0.66555    1.000
    N4650    N        0.76373    0.28283    0.70228    1.000
    Si4651   Si       0.78845    0.29658    0.67014    1.000
    N4652    N        0.77868    0.26793    0.63748    1.000
    N4653    N        0.76169    0.33818    0.73917    1.000
    Si4654   Si       0.75621    0.35791    0.63204    1.000
    Si4655   Si       0.76481    0.29197    0.74521    1.000
    Si4656   Si       0.76943    0.43660    0.62085    1.000
    N4657    N        0.76760    0.41378    0.72316    1.000
    N4658    N        0.79947    0.43860    0.65335    1.000
    Si4659   Si       0.80126    0.41648    0.69455    1.000
    N4660    N        0.78149    0.50091    0.68731    1.000
    N4661    N        0.77769    0.28743    0.84385    1.000
    N4662    N        0.79635    0.30159    0.77294    1.000
    Si4663   Si       0.80689    0.29850    0.81338    1.000
    Si4664   Si       0.80317    0.34165    0.75691    1.000
    N4665    N        0.80067    0.37966    0.77912    1.000
    N4666    N        0.77960    0.39157    0.84192    1.000
    Si4667   Si       0.77584    0.41068    0.76654    1.000
    N4668    N        0.78421    0.44284    0.79382    1.000
    Si4669   Si       0.77501    0.48569    0.77652    1.000
    Si4670   Si       0.78500    0.43741    0.83883    1.000
    N4671    N        0.76788    0.50772    0.81404    1.000
    Si4672   Si       0.79706    0.50730    0.84768    1.000
    N4673    N        0.81246    0.46711    0.85444    1.000
    N4674    N        0.79285    0.26114    0.95945    1.000
    Si4675   Si       0.76138    0.36613    0.95161    1.000
    Si4676   Si       0.79359    0.30382    0.95094    1.000
    N4677    N        0.76125    0.32596    0.93186    1.000
    N4678    N        0.80224    0.37588    0.96047    1.000
    N4679    N        0.79157    0.31766    0.99330    1.000
    Si4680   Si       0.79280    0.47830    0.94070    1.000
    Si4681   Si       0.80680    0.40118    0.92552    1.000
    N4682    N        0.76221    0.39675    0.91847    1.000
    N4683    N        0.80064    0.46667    0.98164    1.000
    N4684    N        0.77388    0.61594    0.03496    1.000
    N4685    N        0.77635    0.54677    0.06176    1.000
    N4686    N        0.77409    0.61060    0.10015    1.000
    Si4687   Si       0.75914    0.58846    0.06491    1.000
    Si4688   Si       0.75514    0.50600    0.06664    1.000
    Si4689   Si       0.80313    0.64701    0.02215    1.000
    Si4690   Si       0.77933    0.65364    0.08724    1.000
    N4691    N        0.79195    0.69227    0.00958    1.000
    N4692    N        0.79035    0.68668    0.11816    1.000
    Si4693   Si       0.75233    0.71159    0.00024    1.000
    N4694    N        0.76152    0.60971    0.22148    1.000
    Si4695   Si       0.77582    0.60519    0.14580    1.000
    N4696    N        0.79224    0.56650    0.16418    1.000
    Si4697   Si       0.78009    0.57470    0.23713    1.000
    Si4698   Si       0.75284    0.54996    0.17367    1.000
    N4699    N        0.75362    0.54527    0.21663    1.000
    N4700    N        0.76604    0.73373    0.16524    1.000
    Si4701   Si       0.77025    0.71513    0.20448    1.000
    N4702    N        0.80302    0.68656    0.19374    1.000
    Si4703   Si       0.75631    0.71128    0.12844    1.000
    N4704    N        0.76704    0.64456    0.16549    1.000
    Si4705   Si       0.77531    0.65221    0.21002    1.000
    N4706    N        0.78683    0.74361    0.23183    1.000
    Si4707   Si       0.80914    0.66422    0.15215    1.000
    N4708    N        0.78962    0.55994    0.33955    1.000
    N4709    N        0.76826    0.56810    0.27768    1.000
    Si4710   Si       0.79704    0.52364    0.36105    1.000
    Si4711   Si       0.76278    0.59099    0.35485    1.000
    Si4712   Si       0.80921    0.57148    0.29959    1.000
    N4713    N        0.78425    0.72349    0.34695    1.000
    N4714    N        0.80437    0.65400    0.24664    1.000
    N4715    N        0.78824    0.62227    0.37194    1.000
    N4716    N        0.77057    0.52180    0.39733    1.000
    N4717    N        0.77134    0.52104    0.47960    1.000
    Si4718   Si       0.78931    0.61787    0.41393    1.000
    N4719    N        0.77534    0.58102    0.43454    1.000
    Si4720   Si       0.78074    0.56439    0.47506    1.000
    N4721    N        0.76796    0.65027    0.42923    1.000
    Si4722   Si       0.77660    0.66469    0.46950    1.000
    Si4723   Si       0.76665    0.74015    0.49077    1.000
    Si4724   Si       0.78873    0.72412    0.42436    1.000
    N4725    N        0.77871    0.70843    0.46477    1.000
    N4726    N        0.81245    0.64710    0.48564    1.000
    Si4727   Si       0.78653    0.61491    0.58007    1.000
    N4728    N        0.80274    0.53822    0.53832    1.000
    Si4729   Si       0.76180    0.55359    0.54162    1.000
    N4730    N        0.75909    0.58191    0.57320    1.000
    Si4731   Si       0.75669    0.51099    0.60632    1.000
    N4732    N        0.75436    0.58023    0.50699    1.000
    N4733    N        0.78676    0.63203    0.54132    1.000
    N4734    N        0.76721    0.64158    0.60778    1.000
    N4735    N        0.77195    0.71314    0.60185    1.000
    Si4736   Si       0.78084    0.72258    0.55909    1.000
    N4737    N        0.80794    0.69737    0.53438    1.000
    N4738    N        0.81524    0.55540    0.71779    1.000
    N4739    N        0.80667    0.61858    0.66432    1.000
    N4740    N        0.76992    0.61864    0.72510    1.000
    Si4741   Si       0.79155    0.54279    0.68423    1.000
    Si4742   Si       0.76617    0.61260    0.68216    1.000
    N4743    N        0.76111    0.57035    0.67466    1.000
    Si4744   Si       0.80457    0.72107    0.74094    1.000
    Si4745   Si       0.79341    0.65177    0.74200    1.000
    N4746    N        0.77232    0.68907    0.72968    1.000
    Si4747   Si       0.79919    0.71979    0.63590    1.000
    N4748    N        0.80215    0.68985    0.66656    1.000
    Si4749   Si       0.76024    0.68478    0.68488    1.000
    N4750    N        0.79439    0.60710    0.84404    1.000
    N4751    N        0.77961    0.56217    0.77537    1.000
    Si4752   Si       0.76225    0.60006    0.76381    1.000
    N4753    N        0.78946    0.63064    0.78203    1.000
    Si4754   Si       0.76444    0.73020    0.79978    1.000
    N4755    N        0.78450    0.69037    0.81080    1.000
    N4756    N        0.79389    0.74733    0.77482    1.000
    N4757    N        0.76426    0.75013    0.83725    1.000
    Si4758   Si       0.75820    0.65719    0.80307    1.000
    N4759    N        0.79514    0.52774    0.94319    1.000
    N4760    N        0.77520    0.52304    0.88081    1.000
    Si4761   Si       0.76154    0.60756    0.99082    1.000
    N4762    N        0.75482    0.58663    0.95247    1.000
    Si4763   Si       0.75270    0.54503    0.94288    1.000
    N4764    N        0.79546    0.63326    0.97892    1.000
    N4765    N        0.79740    0.74070    0.89884    1.000
    N4766    N        0.80190    0.67925    0.93001    1.000
    Si4767   Si       0.75903    0.73000    0.87549    1.000
    Si4768   Si       0.75791    0.67846    0.92930    1.000
    N4769    N        0.77822    0.84509    0.04347    1.000
    N4770    N        0.78935    0.77575    0.05925    1.000
    Si4771   Si       0.79553    0.86209    0.08235    1.000
    Si4772   Si       0.80216    0.78867    0.09913    1.000
    Si4773   Si       0.80319    0.83929    0.00942    1.000
    N4774    N        0.81068    0.79676    0.99978    1.000
    N4775    N        0.76565    0.88793    0.09876    1.000
    N4776    N        0.79626    0.95175    0.08803    1.000
    Si4777   Si       0.77300    0.95697    0.01535    1.000
    N4778    N        0.79903    0.98891    0.02793    1.000
    Si4779   Si       0.79279    0.99209    0.07017    1.000
    Si4780   Si       0.75738    0.93031    0.08510    1.000
    N4781    N        0.75096    0.99983    0.07500    1.000
    N4782    N        0.76367    0.79968    0.11934    1.000
    N4783    N        0.78843    0.86083    0.15160    1.000
    Si4784   Si       0.76840    0.82108    0.15506    1.000
    N4785    N        0.79627    0.79870    0.17967    1.000
    N4786    N        0.77739    0.82114    0.23996    1.000
    Si4787   Si       0.75447    0.85804    0.24076    1.000
    Si4788   Si       0.80404    0.75914    0.16477    1.000
    N4789    N        0.76910    0.00185    0.14842    1.000
    N4790    N        0.77833    0.89192    0.22595    1.000
    N4791    N        0.77993    0.96403    0.21211    1.000
    Si4792   Si       0.76263    0.00075    0.19100    1.000
    Si4793   Si       0.75628    0.92624    0.20808    1.000
    Si4794   Si       0.79537    0.83146    0.35108    1.000
    Si4795   Si       0.77272    0.76318    0.33267    1.000
    N4796    N        0.80693    0.79192    0.33385    1.000
    N4797    N        0.75919    0.76716    0.29096    1.000
    N4798    N        0.81007    0.86773    0.33053    1.000
    N4799    N        0.75716    0.86546    0.28305    1.000
    Si4800   Si       0.76674    0.77962    0.25014    1.000
    Si4801   Si       0.79173    0.88756    0.29627    1.000
    N4802    N        0.77688    0.92734    0.31082    1.000
    N4803    N        0.79696    0.99378    0.33040    1.000
    Si4804   Si       0.76452    0.99656    0.35706    1.000
    Si4805   Si       0.81136    0.95507    0.31315    1.000
    N4806    N        0.80060    0.76582    0.43569    1.000
    N4807    N        0.80405    0.83034    0.39379    1.000
    Si4808   Si       0.78779    0.80551    0.42535    1.000
    N4809    N        0.80649    0.82961    0.45689    1.000
    Si4810   Si       0.80944    0.92662    0.42767    1.000
    N4811    N        0.80931    0.89784    0.39476    1.000
    N4812    N        0.77893    0.95040    0.44699    1.000
    Si4813   Si       0.78378    0.98810    0.47178    1.000
    Si4814   Si       0.79358    0.78948    0.53689    1.000
    N4815    N        0.78973    0.86844    0.57774    1.000
    Si4816   Si       0.77103    0.84755    0.60982    1.000
    N4817    N        0.80352    0.76139    0.56761    1.000
    N4818    N        0.80323    0.76272    0.50226    1.000
    N4819    N        0.81343    0.82370    0.62026    1.000
    Si4820   Si       0.77667    0.89678    0.54453    1.000
    N4821    N        0.78099    0.99080    0.51511    1.000
    Si4822   Si       0.80911    0.00190    0.54663    1.000
    N4823    N        0.76093    0.93443    0.55827    1.000
    Si4824   Si       0.78306    0.99804    0.61811    1.000
    Si4825   Si       0.79992    0.80339    0.65747    1.000
    N4826    N        0.77355    0.80807    0.73151    1.000
    N4827    N        0.80504    0.87527    0.72711    1.000
    N4828    N        0.79112    0.75956    0.65017    1.000
    Si4829   Si       0.80824    0.83287    0.72716    1.000
    N4830    N        0.75596    0.81188    0.65632    1.000
    N4831    N        0.81502    0.90489    0.66357    1.000
    N4832    N        0.77487    0.95336    0.63093    1.000
    Si4833   Si       0.78392    0.93687    0.67060    1.000
    N4834    N        0.80361    0.96594    0.69923    1.000
    Si4835   Si       0.80809    0.97286    0.73986    1.000
    N4836    N        0.78610    0.81095    0.80194    1.000
    Si4837   Si       0.79666    0.79039    0.76549    1.000
    Si4838   Si       0.76457    0.79129    0.83430    1.000
    Si4839   Si       0.79843    0.84913    0.81817    1.000
    N4840    N        0.76280    0.86659    0.84703    1.000
    N4841    N        0.78497    0.80705    0.86885    1.000
    N4842    N        0.78979    0.88170    0.79321    1.000
    Si4843   Si       0.77480    0.90968    0.83915    1.000
    N4844    N        0.78578    0.98727    0.82890    1.000
    Si4845   Si       0.77372    0.96360    0.79428    1.000
    N4846    N        0.77245    0.99181    0.76050    1.000
    Si4847   Si       0.78887    0.90197    0.75592    1.000
    N4848    N        0.80707    0.94202    0.77219    1.000
    N4849    N        0.78829    0.85391    0.97173    1.000
    N4850    N        0.79250    0.86569    0.90593    1.000
    Si4851   Si       0.76399    0.84223    0.88371    1.000
    N4852    N        0.75974    0.97777    0.92786    1.000
    Si4853   Si       0.80243    0.97463    0.92356    1.000
    Si4854   Si       0.76620    0.89227    0.97968    1.000
    Si4855   Si       0.77614    0.90507    0.91260    1.000
    N4856    N        0.81057    0.92844    0.92276    1.000
    N4857    N        0.76263    0.92684    0.87922    1.000
    N4858    N        0.79153    0.92623    0.99101    1.000
    N4859    N        0.84714    0.08580    0.06869    1.000
    Si4860   Si       0.82489    0.09551    0.03015    1.000
    N4861    N        0.86538    0.10478    0.00839    1.000
    N4862    N        0.81533    0.02000    0.09673    1.000
    N4863    N        0.84629    0.03652    0.99897    1.000
    Si4864   Si       0.81453    0.06123    0.08588    1.000
    Si4865   Si       0.83170    0.16655    0.03588    1.000
    Si4866   Si       0.82713    0.24774    0.04902    1.000
    N4867    N        0.82086    0.20479    0.05154    1.000
    N4868    N        0.87252    0.15842    0.04876    1.000
    N4869    N        0.85163    0.11226    0.16357    1.000
    Si4870   Si       0.82004    0.08419    0.15691    1.000
    N4871    N        0.83312    0.06449    0.22874    1.000
    N4872    N        0.82713    0.04194    0.16364    1.000
    Si4873   Si       0.84891    0.03395    0.20157    1.000
    Si4874   Si       0.81139    0.01046    0.13815    1.000
    Si4875   Si       0.84055    0.22594    0.16419    1.000
    N4876    N        0.84604    0.22970    0.20612    1.000
    Si4877   Si       0.85745    0.15605    0.16211    1.000
    N4878    N        0.82476    0.18389    0.16331    1.000
    N4879    N        0.84447    0.03004    0.28853    1.000
    Si4880   Si       0.85761    0.06420    0.26494    1.000
    N4881    N        0.84264    0.09723    0.28582    1.000
    N4882    N        0.84718    0.12619    0.34996    1.000
    N4883    N        0.81410    0.05922    0.34949    1.000
    Si4884   Si       0.85763    0.13149    0.30451    1.000
    Si4885   Si       0.81044    0.03084    0.31480    1.000
    Si4886   Si       0.81052    0.10257    0.35341    1.000
    N4887    N        0.82452    0.23463    0.27058    1.000
    Si4888   Si       0.83666    0.16952    0.34699    1.000
    N4889    N        0.83805    0.17089    0.30381    1.000
    Si4890   Si       0.85447    0.20606    0.28371    1.000
    Si4891   Si       0.86476    0.07837    0.42496    1.000
    Si4892   Si       0.83325    0.03962    0.48796    1.000
    N4893    N        0.86403    0.06217    0.46760    1.000
    Si4894   Si       0.82023    0.03620    0.38690    1.000
    N4895    N        0.82437    0.06891    0.41308    1.000
    N4896    N        0.86755    0.16046    0.48498    1.000
    N4897    N        0.84043    0.23189    0.40399    1.000
    N4898    N        0.83143    0.22517    0.46685    1.000
    Si4899   Si       0.86923    0.20235    0.47099    1.000
    N4900    N        0.84040    0.02590    0.52696    1.000
    N4901    N        0.85902    0.07263    0.57908    1.000
    N4902    N        0.83318    0.12257    0.52895    1.000
    Si4903   Si       0.81634    0.06271    0.58865    1.000
    Si4904   Si       0.86953    0.11690    0.58799    1.000
    N4905    N        0.82781    0.12951    0.59290    1.000
    N4906    N        0.85118    0.19382    0.53852    1.000
    Si4907   Si       0.82386    0.22442    0.55449    1.000
    Si4908   Si       0.86266    0.15473    0.52771    1.000
    N4909    N        0.86010    0.24793    0.56122    1.000
    N4910    N        0.83579    0.03308    0.68475    1.000
    N4911    N        0.85983    0.09828    0.68515    1.000
    N4912    N        0.82060    0.12373    0.73800    1.000
    Si4913   Si       0.82036    0.10986    0.69685    1.000
    Si4914   Si       0.87107    0.05692    0.68995    1.000
    Si4915   Si       0.81269    0.24091    0.63060    1.000
    Si4916   Si       0.86556    0.13435    0.66033    1.000
    N4917    N        0.82144    0.13910    0.66079    1.000
    N4918    N        0.81928    0.21036    0.65856    1.000
    Si4919   Si       0.85437    0.20275    0.68599    1.000
    N4920    N        0.84138    0.18828    0.72596    1.000
    N4921    N        0.84915    0.09727    0.80388    1.000
    N4922    N        0.82514    0.04011    0.85030    1.000
    Si4923   Si       0.85790    0.06178    0.82793    1.000
    Si4924   Si       0.85328    0.03268    0.75793    1.000
    Si4925   Si       0.81847    0.09582    0.77191    1.000
    N4926    N        0.81497    0.05176    0.76311    1.000
    N4927    N        0.87090    0.03249    0.79865    1.000
    N4928    N        0.83360    0.15919    0.81836    1.000
    N4929    N        0.85276    0.21464    0.78655    1.000
    Si4930   Si       0.81761    0.19535    0.80014    1.000
    Si4931   Si       0.85470    0.07424    0.97938    1.000
    N4932    N        0.86663    0.11327    0.89611    1.000
    Si4933   Si       0.82346    0.11376    0.89923    1.000
    Si4934   Si       0.81161    0.00942    0.99117    1.000
    Si4935   Si       0.84197    0.16571    0.95187    1.000
    N4936    N        0.84115    0.17017    0.99373    1.000
    N4937    N        0.84445    0.20878    0.93920    1.000
    N4938    N        0.81668    0.24946    0.89137    1.000
    Si4939   Si       0.83538    0.30227    0.10521    1.000
    Si4940   Si       0.85412    0.35462    0.04314    1.000
    N4941    N        0.86065    0.32307    0.07258    1.000
    N4942    N        0.86260    0.34829    0.00101    1.000
    N4943    N        0.82525    0.26409    0.09032    1.000
    N4944    N        0.85925    0.26508    0.02925    1.000
    N4945    N        0.84767    0.45645    0.08050    1.000
    Si4946   Si       0.83664    0.48121    0.00227    1.000
    N4947    N        0.85493    0.39605    0.05617    1.000
    N4948    N        0.81760    0.49820    0.03694    1.000
    N4949    N        0.86987    0.45605    0.01834    1.000
    N4950    N        0.83246    0.33751    0.20073    1.000
    Si4951   Si       0.82679    0.35379    0.16033    1.000
    N4952    N        0.86122    0.36941    0.13909    1.000
    Si4953   Si       0.86083    0.32864    0.23316    1.000
    Si4954   Si       0.83846    0.25997    0.23684    1.000
    N4955    N        0.82006    0.40297    0.24139    1.000
    Si4956   Si       0.83629    0.49318    0.22919    1.000
    Si4957   Si       0.82597    0.46598    0.17673    1.000
    N4958    N        0.86088    0.46760    0.20307    1.000
    Si4959   Si       0.86026    0.46181    0.12226    1.000
    N4960    N        0.83275    0.43594    0.14545    1.000
    N4961    N        0.81362    0.49972    0.15128    1.000
    Si4962   Si       0.84227    0.33403    0.30305    1.000
    N4963    N        0.82785    0.32430    0.26276    1.000
    N4964    N        0.83009    0.37423    0.30966    1.000
    N4965    N        0.82566    0.31214    0.33531    1.000
    Si4966   Si       0.81734    0.37668    0.35247    1.000
    Si4967   Si       0.82308    0.41078    0.28389    1.000
    N4968    N        0.83209    0.41792    0.35777    1.000
    N4969    N        0.86000    0.43134    0.29281    1.000
    N4970    N        0.86273    0.49670    0.26482    1.000
    Si4971   Si       0.83995    0.31140    0.37679    1.000
    N4972    N        0.83522    0.35461    0.38485    1.000
    Si4973   Si       0.85697    0.31031    0.46927    1.000
    N4974    N        0.85002    0.35021    0.45318    1.000
    Si4975   Si       0.86104    0.37021    0.41583    1.000
    Si4976   Si       0.81806    0.37667    0.46865    1.000
    N4977    N        0.81705    0.28890    0.47150    1.000
    Si4978   Si       0.83199    0.26220    0.43774    1.000
    N4979    N        0.87262    0.28123    0.44375    1.000
    Si4980   Si       0.86194    0.43221    0.38749    1.000
    N4981    N        0.81682    0.46350    0.46447    1.000
    Si4982   Si       0.85720    0.48176    0.47114    1.000
    Si4983   Si       0.81649    0.43790    0.42735    1.000
    Si4984   Si       0.86097    0.50314    0.39852    1.000
    N4985    N        0.85203    0.41264    0.42348    1.000
    N4986    N        0.83649    0.46735    0.39443    1.000
    N4987    N        0.83340    0.40830    0.49515    1.000
    Si4988   Si       0.84777    0.32576    0.54585    1.000
    N4989    N        0.83895    0.36771    0.55726    1.000
    Si4990   Si       0.87043    0.27463    0.59302    1.000
    N4991    N        0.86961    0.31623    0.51016    1.000
    N4992    N        0.84391    0.40461    0.60672    1.000
    Si4993   Si       0.86725    0.39489    0.57320    1.000
    Si4994   Si       0.87349    0.41641    0.50644    1.000
    N4995    N        0.87362    0.42982    0.54682    1.000
    N4996    N        0.84818    0.26715    0.62760    1.000
    N4997    N        0.83891    0.34803    0.73473    1.000
    Si4998   Si       0.84135    0.34945    0.68991    1.000
    Si4999   Si       0.86079    0.28069    0.66631    1.000
    N5000    N        0.82971    0.30811    0.67801    1.000
    N5001    N        0.84535    0.48556    0.65045    1.000
    N5002    N        0.82353    0.38440    0.67665    1.000
    Si5003   Si       0.81375    0.47224    0.67729    1.000
    Si5004   Si       0.86650    0.44274    0.72648    1.000
    N5005    N        0.82712    0.44687    0.70881    1.000
    Si5006   Si       0.83814    0.41476    0.64725    1.000
    N5007    N        0.84423    0.27861    0.81773    1.000
    N5008    N        0.82808    0.33747    0.82375    1.000
    Si5009   Si       0.86227    0.31529    0.83635    1.000
    Si5010   Si       0.81423    0.37786    0.82047    1.000
    N5011    N        0.84150    0.40824    0.83499    1.000
    Si5012   Si       0.85457    0.48921    0.77132    1.000
    N5013    N        0.86258    0.44057    0.77147    1.000
    Si5014   Si       0.86238    0.44285    0.81541    1.000
    N5015    N        0.86523    0.48564    0.81421    1.000
    N5016    N        0.81480    0.50029    0.76306    1.000
    Si5017   Si       0.86063    0.40032    0.87077    1.000
    N5018    N        0.85882    0.30673    0.87851    1.000
    N5019    N        0.83060    0.32073    0.94248    1.000
    Si5020   Si       0.85225    0.33940    0.90880    1.000
    Si5021   Si       0.82421    0.34571    0.98214    1.000
    N5022    N        0.83682    0.37920    0.90093    1.000
    Si5023   Si       0.85535    0.26244    0.87980    1.000
    N5024    N        0.81337    0.44512    0.92016    1.000
    Si5025   Si       0.83859    0.46336    0.88931    1.000
    N5026    N        0.84547    0.50184    0.90691    1.000
    N5027    N        0.85213    0.54267    0.07485    1.000
    N5028    N        0.82286    0.56041    0.01246    1.000
    N5029    N        0.84559    0.62546    0.02332    1.000
    Si5030   Si       0.85581    0.58801    0.00176    1.000
    Si5031   Si       0.81647    0.53950    0.04969    1.000
    N5032    N        0.84214    0.73489    0.02660    1.000
    Si5033   Si       0.85632    0.65020    0.05582    1.000
    Si5034   Si       0.82565    0.71160    0.11248    1.000
    N5035    N        0.86331    0.71391    0.09160    1.000
    N5036    N        0.81532    0.66375    0.06309    1.000
    Si5037   Si       0.85981    0.60194    0.15623    1.000
    Si5038   Si       0.82268    0.53812    0.16641    1.000
    N5039    N        0.83412    0.53462    0.21019    1.000
    Si5040   Si       0.85317    0.56951    0.22542    1.000
    N5041    N        0.85591    0.56018    0.14681    1.000
    N5042    N        0.82383    0.62381    0.14573    1.000
    N5043    N        0.86047    0.60572    0.20090    1.000
    N5044    N        0.81472    0.75441    0.12282    1.000
    N5045    N        0.83873    0.74355    0.18619    1.000
    Si5046   Si       0.86478    0.71061    0.17503    1.000
    Si5047   Si       0.83406    0.68423    0.22688    1.000
    Si5048   Si       0.83073    0.75317    0.22882    1.000
    N5049    N        0.84820    0.68792    0.14298    1.000
    N5050    N        0.85054    0.55253    0.30606    1.000
    Si5051   Si       0.85760    0.55998    0.34871    1.000
    N5052    N        0.85037    0.60116    0.36295    1.000
    Si5053   Si       0.82780    0.62498    0.26680    1.000
    Si5054   Si       0.82368    0.62893    0.34618    1.000
    N5055    N        0.81573    0.61531    0.30675    1.000
    N5056    N        0.82155    0.58571    0.25007    1.000
    N5057    N        0.83840    0.53068    0.37403    1.000
    N5058    N        0.83592    0.67164    0.34777    1.000
    N5059    N        0.85436    0.74043    0.35421    1.000
    Si5060   Si       0.82251    0.71171    0.36301    1.000
    N5061    N        0.84874    0.72019    0.24909    1.000
    N5062    N        0.86821    0.63961    0.25682    1.000
    Si5063   Si       0.86777    0.60504    0.40412    1.000
    N5064    N        0.82082    0.57763    0.48515    1.000
    Si5065   Si       0.83501    0.61536    0.46679    1.000
    N5066    N        0.83156    0.61734    0.42378    1.000
    N5067    N        0.84115    0.51180    0.49735    1.000
    N5068    N        0.85008    0.72942    0.46932    1.000
    Si5069   Si       0.86378    0.71542    0.43247    1.000
    N5070    N        0.82433    0.71138    0.40671    1.000
    N5071    N        0.82364    0.60297    0.59981    1.000
    Si5072   Si       0.85640    0.60291    0.57243    1.000
    Si5073   Si       0.83677    0.55032    0.51568    1.000
    N5074    N        0.86112    0.57909    0.53744    1.000
    N5075    N        0.86320    0.54016    0.59876    1.000
    Si5076   Si       0.81902    0.65617    0.52632    1.000
    Si5077   Si       0.84301    0.74969    0.58196    1.000
    N5078    N        0.85186    0.64094    0.55236    1.000
    Si5079   Si       0.84073    0.71705    0.51330    1.000
    N5080    N        0.86274    0.73547    0.54700    1.000
    N5081    N        0.83805    0.72229    0.61701    1.000
    N5082    N        0.87038    0.68175    0.50902    1.000
    Si5083   Si       0.83513    0.51764    0.62177    1.000
    Si5084   Si       0.82999    0.58931    0.64179    1.000
    N5085    N        0.81775    0.55000    0.64846    1.000
    N5086    N        0.81993    0.75300    0.71749    1.000
    Si5087   Si       0.82675    0.65517    0.67457    1.000
    N5088    N        0.85990    0.66207    0.64870    1.000
    N5089    N        0.83200    0.64884    0.71908    1.000
    Si5090   Si       0.86755    0.70555    0.64452    1.000
    N5091    N        0.85303    0.59782    0.83176    1.000
    N5092    N        0.82784    0.53541    0.84151    1.000
    N5093    N        0.85648    0.54438    0.77810    1.000
    Si5094   Si       0.82149    0.62296    0.81292    1.000
    Si5095   Si       0.82261    0.57612    0.85478    1.000
    Si5096   Si       0.86520    0.52819    0.82178    1.000
    Si5097   Si       0.81603    0.54339    0.75863    1.000
    N5098    N        0.85134    0.70795    0.83545    1.000
    N5099    N        0.83222    0.69355    0.76101    1.000
    N5100    N        0.85072    0.65485    0.80332    1.000
    Si5101   Si       0.82572    0.69120    0.80432    1.000
    Si5102   Si       0.85920    0.65730    0.75382    1.000
    Si5103   Si       0.86419    0.72867    0.87004    1.000
    Si5104   Si       0.85682    0.59251    0.91985    1.000
    Si5105   Si       0.82535    0.54259    0.97155    1.000
    N5106    N        0.85257    0.57648    0.95984    1.000
    N5107    N        0.82882    0.57097    0.89688    1.000
    Si5108   Si       0.81569    0.53154    0.90365    1.000
    N5109    N        0.85419    0.51097    0.97463    1.000
    N5110    N        0.85365    0.63524    0.92727    1.000
    Si5111   Si       0.82616    0.65283    0.95565    1.000
    Si5112   Si       0.82225    0.71576    0.92433    1.000
    N5113    N        0.85722    0.70387    0.90394    1.000
    N5114    N        0.85114    0.68186    0.97728    1.000
    N5115    N        0.82552    0.74074    0.96086    1.000
    Si5116   Si       0.82649    0.71166    0.99483    1.000
    N5117    N        0.84198    0.85703    0.01348    1.000
    N5118    N        0.85942    0.79214    0.04776    1.000
    Si5119   Si       0.86185    0.83130    0.10519    1.000
    Si5120   Si       0.82396    0.77337    0.03280    1.000
    N5121    N        0.81985    0.82832    0.09698    1.000
    Si5122   Si       0.85672    0.87884    0.04715    1.000
    N5123    N        0.82555    0.89341    0.07459    1.000
    Si5124   Si       0.83043    0.92808    0.10027    1.000
    N5125    N        0.86552    0.95256    0.09110    1.000
    Si5126   Si       0.83177    0.86840    0.15790    1.000
    N5127    N        0.82973    0.85716    0.20085    1.000
    N5128    N        0.84124    0.79452    0.23543    1.000
    N5129    N        0.86897    0.84862    0.14423    1.000
    Si5130   Si       0.81370    0.82041    0.21510    1.000
    N5131    N        0.83810    0.92845    0.20849    1.000
    Si5132   Si       0.82259    0.89163    0.22653    1.000
    N5133    N        0.84558    0.99701    0.22404    1.000
    Si5134   Si       0.84789    0.93866    0.16904    1.000
    N5135    N        0.83233    0.90959    0.14132    1.000
    Si5136   Si       0.81859    0.96203    0.22887    1.000
    N5137    N        0.83861    0.97736    0.14846    1.000
    Si5138   Si       0.85004    0.78026    0.33708    1.000
    N5139    N        0.86141    0.77216    0.29551    1.000
    Si5140   Si       0.87039    0.80296    0.26698    1.000
    N5141    N        0.87043    0.88053    0.36024    1.000
    Si5142   Si       0.86578    0.88159    0.27887    1.000
    N5143    N        0.82530    0.89025    0.26960    1.000
    N5144    N        0.82644    0.96197    0.27327    1.000
    Si5145   Si       0.85732    0.99321    0.26906    1.000
    N5146    N        0.83610    0.94058    0.34768    1.000
    Si5147   Si       0.82963    0.89708    0.35706    1.000
    N5148    N        0.85913    0.86088    0.49266    1.000
    N5149    N        0.86229    0.79209    0.47994    1.000
    Si5150   Si       0.82743    0.76644    0.46873    1.000
    N5151    N        0.86126    0.85341    0.42259    1.000
    Si5152   Si       0.83503    0.82586    0.49062    1.000
    Si5153   Si       0.81860    0.86081    0.42446    1.000
    N5154    N        0.84095    0.94658    0.49229    1.000
    Si5155   Si       0.85673    0.96291    0.37930    1.000
    Si5156   Si       0.83988    0.90224    0.48844    1.000
    N5157    N        0.85461    0.00672    0.38144    1.000
    N5158    N        0.82274    0.00369    0.46427    1.000
    Si5159   Si       0.85291    0.97208    0.45814    1.000
    N5160    N        0.84270    0.95385    0.41958    1.000
    N5161    N        0.81497    0.89384    0.45547    1.000
    N5162    N        0.86069    0.84877    0.57625    1.000
    Si5163   Si       0.82700    0.86143    0.55404    1.000
    Si5164   Si       0.85466    0.81842    0.60639    1.000
    N5165    N        0.87077    0.77961    0.59759    1.000
    N5166    N        0.81717    0.82410    0.52914    1.000
    Si5167   Si       0.84623    0.97919    0.59898    1.000
    Si5168   Si       0.84283    0.93881    0.53515    1.000
    N5169    N        0.82736    0.96669    0.56362    1.000
    N5170    N        0.82119    0.89962    0.52968    1.000
    N5171    N        0.86966    0.94510    0.61447    1.000
    N5172    N        0.82511    0.82767    0.68699    1.000
    Si5173   Si       0.85386    0.77632    0.72851    1.000
    Si5174   Si       0.86879    0.83107    0.68017    1.000
    Si5175   Si       0.82906    0.87749    0.69032    1.000
    N5176    N        0.87185    0.87127    0.69642    1.000
    N5177    N        0.84808    0.98969    0.74346    1.000
    N5178    N        0.82475    0.99290    0.63321    1.000
    N5179    N        0.86943    0.96729    0.68230    1.000
    Si5180   Si       0.83278    0.98970    0.67587    1.000
    N5181    N        0.84191    0.84721    0.81538    1.000
    N5182    N        0.83523    0.80794    0.75369    1.000
    Si5183   Si       0.86284    0.81865    0.78699    1.000
    N5184    N        0.84895    0.77056    0.86995    1.000
    Si5185   Si       0.83521    0.93580    0.80543    1.000
    N5186    N        0.85020    0.97372    0.82238    1.000
    Si5187   Si       0.82426    0.99611    0.84849    1.000
    N5188    N        0.81713    0.92053    0.84355    1.000
    Si5189   Si       0.83063    0.78462    0.96484    1.000
    N5190    N        0.85429    0.86217    0.94818    1.000
    N5191    N        0.81722    0.80242    0.92917    1.000
    Si5192   Si       0.81291    0.84428    0.93774    1.000
    Si5193   Si       0.81303    0.78201    0.89076    1.000
    Si5194   Si       0.87201    0.84486    0.98307    1.000
    N5195    N        0.82151    0.97898    0.96131    1.000
    Si5196   Si       0.83111    0.93323    0.88158    1.000
    N5197    N        0.86690    0.92632    0.96668    1.000
    N5198    N        0.86729    0.91430    0.89305    1.000
    Si5199   Si       0.82449    0.93463    0.96550    1.000
    N5200    N        0.82593    0.97701    0.88730    1.000
    N5201    N        0.89484    0.04374    0.05407    1.000
    N5202    N        0.91442    0.11541    0.07812    1.000
    Si5203   Si       0.88889    0.07960    0.08015    1.000
    Si5204   Si       0.88227    0.01986    0.01873    1.000
    N5205    N        0.91817    0.03541    0.99841    1.000
    N5206    N        0.88979    0.07223    0.12257    1.000
    N5207    N        0.91351    0.19477    0.08968    1.000
    Si5208   Si       0.89788    0.15610    0.08320    1.000
    N5209    N        0.92380    0.23429    0.02924    1.000
    N5210    N        0.92052    0.16118    0.00037    1.000
    Si5211   Si       0.87953    0.14664    0.00331    1.000
    Si5212   Si       0.92985    0.20494    0.99929    1.000
    Si5213   Si       0.89103    0.11141    0.14040    1.000
    N5214    N        0.89141    0.04418    0.19053    1.000
    Si5215   Si       0.90431    0.04052    0.14787    1.000
    Si5216   Si       0.92038    0.04401    0.22305    1.000
    N5217    N        0.92355    0.11528    0.16995    1.000
    N5218    N        0.92728    0.13577    0.24025    1.000
    Si5219   Si       0.88355    0.20626    0.21239    1.000
    N5220    N        0.89097    0.17084    0.18677    1.000
    Si5221   Si       0.90513    0.19393    0.13240    1.000
    N5222    N        0.91688    0.23372    0.21026    1.000
    N5223    N        0.88271    0.15349    0.12440    1.000
    N5224    N        0.87757    0.22727    0.14283    1.000
    N5225    N        0.89966    0.04961    0.26237    1.000
    N5226    N        0.90470    0.03024    0.33274    1.000
    Si5227   Si       0.91543    0.02068    0.29206    1.000
    N5228    N        0.91479    0.11343    0.36353    1.000
    N5229    N        0.90026    0.14040    0.30065    1.000
    Si5230   Si       0.91436    0.16728    0.26744    1.000
    N5231    N        0.88079    0.22561    0.30934    1.000
    N5232    N        0.87995    0.18853    0.25247    1.000
    Si5233   Si       0.92407    0.23254    0.30445    1.000
    Si5234   Si       0.89500    0.02439    0.37469    1.000
    N5235    N        0.87794    0.11954    0.41965    1.000
    Si5236   Si       0.90114    0.06619    0.48813    1.000
    N5237    N        0.89450    0.05940    0.39952    1.000
    N5238    N        0.90782    0.10919    0.48279    1.000
    N5239    N        0.93045    0.04606    0.46102    1.000
    Si5240   Si       0.92807    0.00691    0.44122    1.000
    N5241    N        0.89720    0.22309    0.49374    1.000
    Si5242   Si       0.87631    0.20985    0.39793    1.000
    N5243    N        0.90904    0.24197    0.39540    1.000
    Si5244   Si       0.89344    0.14126    0.45538    1.000
    Si5245   Si       0.87933    0.13333    0.37915    1.000
    N5246    N        0.89012    0.19022    0.43437    1.000
    N5247    N        0.87359    0.17696    0.37115    1.000
    N5248    N        0.90578    0.05280    0.52797    1.000
    Si5249   Si       0.87089    0.03922    0.55330    1.000
    N5250    N        0.87620    0.00887    0.58524    1.000
    N5251    N        0.89153    0.14062    0.55864    1.000
    N5252    N        0.91486    0.20388    0.56323    1.000
    Si5253   Si       0.88611    0.22174    0.53531    1.000
    Si5254   Si       0.92956    0.16221    0.56184    1.000
    Si5255   Si       0.92929    0.24328    0.57424    1.000
    Si5256   Si       0.92834    0.00432    0.67242    1.000
    N5257    N        0.89016    0.12181    0.62530    1.000
    N5258    N        0.88205    0.05173    0.73194    1.000
    N5259    N        0.90119    0.03930    0.66457    1.000
    Si5260   Si       0.91916    0.07084    0.73661    1.000
    N5261    N        0.90791    0.20665    0.73963    1.000
    Si5262   Si       0.91612    0.18138    0.70289    1.000
    N5263    N        0.87159    0.24245    0.68896    1.000
    Si5264   Si       0.91376    0.24814    0.69209    1.000
    N5265    N        0.88149    0.17115    0.67655    1.000
    N5266    N        0.89329    0.07358    0.84957    1.000
    Si5267   Si       0.90001    0.11068    0.86922    1.000
    N5268    N        0.90152    0.14195    0.83963    1.000
    N5269    N        0.88348    0.15178    0.77205    1.000
    N5270    N        0.87931    0.23724    0.85109    1.000
    Si5271   Si       0.92813    0.14037    0.76696    1.000
    Si5272   Si       0.86885    0.13663    0.80800    1.000
    Si5273   Si       0.87221    0.19080    0.75693    1.000
    Si5274   Si       0.87232    0.24654    0.80976    1.000
    N5275    N        0.92633    0.12613    0.90373    1.000
    N5276    N        0.88665    0.07231    0.95102    1.000
    Si5277   Si       0.89289    0.11008    0.93177    1.000
    Si5278   Si       0.92630    0.04939    0.95801    1.000
    Si5279   Si       0.91148    0.23250    0.87814    1.000
    Si5280   Si       0.88737    0.21821    0.93438    1.000
    N5281    N        0.88836    0.25535    0.91178    1.000
    N5282    N        0.91363    0.19740    0.90559    1.000
    N5283    N        0.91599    0.22818    0.96614    1.000
    N5284    N        0.87950    0.14351    0.95499    1.000
    Si5285   Si       0.89922    0.30457    0.07492    1.000
    N5286    N        0.91847    0.33135    0.10444    1.000
    N5287    N        0.91883    0.30701    0.03563    1.000
    N5288    N        0.91062    0.26304    0.09002    1.000
    Si5289   Si       0.90057    0.27167    0.01635    1.000
    Si5290   Si       0.87703    0.43484    0.05475    1.000
    N5291    N        0.92020    0.43219    0.06717    1.000
    N5292    N        0.93421    0.48190    0.99780    1.000
    N5293    N        0.86985    0.29801    0.13225    1.000
    Si5294   Si       0.91484    0.26954    0.23151    1.000
    Si5295   Si       0.89635    0.26435    0.13169    1.000
    Si5296   Si       0.88978    0.33667    0.13742    1.000
    N5297    N        0.90679    0.34152    0.17579    1.000
    Si5298   Si       0.90722    0.37282    0.20719    1.000
    N5299    N        0.89302    0.35615    0.24478    1.000
    N5300    N        0.87430    0.28739    0.23178    1.000
    N5301    N        0.92849    0.27503    0.15719    1.000
    Si5302   Si       0.87065    0.40823    0.15414    1.000
    N5303    N        0.88021    0.49888    0.12627    1.000
    N5304    N        0.89463    0.43808    0.13321    1.000
    Si5305   Si       0.89919    0.44861    0.20428    1.000
    N5306    N        0.88861    0.40866    0.19237    1.000
    Si5307   Si       0.92154    0.48805    0.14280    1.000
    N5308    N        0.88609    0.32632    0.30565    1.000
    Si5309   Si       0.91344    0.35411    0.28274    1.000
    Si5310   Si       0.90681    0.30626    0.33769    1.000
    N5311    N        0.92719    0.26953    0.33719    1.000
    N5312    N        0.92692    0.26648    0.27340    1.000
    N5313    N        0.91628    0.38721    0.31266    1.000
    N5314    N        0.90864    0.46048    0.31322    1.000
    Si5315   Si       0.88732    0.46085    0.27580    1.000
    Si5316   Si       0.89128    0.42002    0.32357    1.000
    N5317    N        0.89930    0.43294    0.36661    1.000
    Si5318   Si       0.91995    0.47082    0.35238    1.000
    N5319    N        0.91542    0.44772    0.24533    1.000
    N5320    N        0.88325    0.30736    0.37992    1.000
    Si5321   Si       0.90218    0.28149    0.41350    1.000
    N5322    N        0.90096    0.37169    0.40485    1.000
    Si5323   Si       0.91741    0.33636    0.38999    1.000
    Si5324   Si       0.92198    0.40865    0.39402    1.000
    N5325    N        0.92683    0.43074    0.43082    1.000
    N5326    N        0.88730    0.45258    0.48408    1.000
    N5327    N        0.89955    0.50206    0.37593    1.000
    Si5328   Si       0.92435    0.43050    0.47314    1.000
    N5329    N        0.87366    0.50621    0.43968    1.000
    N5330    N        0.91000    0.39482    0.49462    1.000
    Si5331   Si       0.91335    0.33898    0.58034    1.000
    Si5332   Si       0.91134    0.30161    0.51906    1.000
    N5333    N        0.91212    0.26511    0.60809    1.000
    N5334    N        0.91828    0.26196    0.53722    1.000
    N5335    N        0.87673    0.31459    0.57848    1.000
    N5336    N        0.92956    0.33495    0.53801    1.000
    N5337    N        0.90692    0.38205    0.57742    1.000
    Si5338   Si       0.89464    0.46388    0.56163    1.000
    N5339    N        0.88459    0.47894    0.60050    1.000
    N5340    N        0.89884    0.50183    0.54367    1.000
    N5341    N        0.88499    0.35481    0.68507    1.000
    Si5342   Si       0.91097    0.32297    0.69938    1.000
    N5343    N        0.90378    0.28995    0.67053    1.000
    N5344    N        0.90024    0.32545    0.74134    1.000
    Si5345   Si       0.87873    0.36425    0.74395    1.000
    Si5346   Si       0.88826    0.47283    0.64585    1.000
    Si5347   Si       0.89921    0.39512    0.68432    1.000
    N5348    N        0.87647    0.42794    0.66425    1.000
    N5349    N        0.88982    0.40490    0.72701    1.000
    N5350    N        0.90203    0.50682    0.67241    1.000
    N5351    N        0.87839    0.48704    0.73428    1.000
    N5352    N        0.90029    0.32099    0.81601    1.000
    Si5353   Si       0.91197    0.30230    0.77899    1.000
    Si5354   Si       0.90448    0.36400    0.82417    1.000
    N5355    N        0.89312    0.36979    0.86660    1.000
    N5356    N        0.88865    0.37769    0.78365    1.000
    N5357    N        0.90549    0.25966    0.78559    1.000
    N5358    N        0.90459    0.42892    0.81830    1.000
    Si5359   Si       0.90162    0.41693    0.77312    1.000
    Si5360   Si       0.91667    0.36265    0.90407    1.000
    N5361    N        0.89332    0.29075    0.97528    1.000
    N5362    N        0.89305    0.33473    0.92878    1.000
    Si5363   Si       0.89892    0.29177    0.93173    1.000
    Si5364   Si       0.89421    0.33359    0.97584    1.000
    Si5365   Si       0.90742    0.44099    0.91398    1.000
    Si5366   Si       0.87734    0.49805    0.93908    1.000
    N5367    N        0.87515    0.43886    0.88633    1.000
    N5368    N        0.88987    0.45902    0.94816    1.000
    N5369    N        0.91957    0.39977    0.92659    1.000
    Si5370   Si       0.90428    0.45257    0.98899    1.000
    N5371    N        0.92472    0.41587    0.99723    1.000
    N5372    N        0.89232    0.57623    0.02033    1.000
    N5373    N        0.90405    0.56935    0.09423    1.000
    Si5374   Si       0.90812    0.61146    0.10303    1.000
    Si5375   Si       0.88929    0.55171    0.05388    1.000
    N5376    N        0.91994    0.52115    0.06022    1.000
    Si5377   Si       0.87204    0.54053    0.11351    1.000
    N5378    N        0.91048    0.74640    0.04836    1.000
    N5379    N        0.87835    0.64252    0.09224    1.000
    Si5380   Si       0.88415    0.68052    0.11364    1.000
    N5381    N        0.88105    0.68168    0.03795    1.000
    Si5382   Si       0.87551    0.72230    0.05196    1.000
    N5383    N        0.90183    0.61551    0.14606    1.000
    N5384    N        0.89009    0.55846    0.24535    1.000
    N5385    N        0.92623    0.63514    0.21121    1.000
    N5386    N        0.87047    0.67847    0.20335    1.000
    Si5387   Si       0.88298    0.63772    0.21564    1.000
    N5388    N        0.89738    0.73249    0.15734    1.000
    N5389    N        0.92890    0.68297    0.12083    1.000
    Si5390   Si       0.91028    0.60963    0.35127    1.000
    N5391    N        0.90176    0.56494    0.35085    1.000
    N5392    N        0.91863    0.53000    0.29913    1.000
    Si5393   Si       0.88096    0.53419    0.28056    1.000
    N5394    N        0.89372    0.63595    0.32058    1.000
    Si5395   Si       0.89565    0.65724    0.28376    1.000
    N5396    N        0.91894    0.73613    0.25922    1.000
    N5397    N        0.88268    0.69678    0.30147    1.000
    Si5398   Si       0.87997    0.73437    0.27968    1.000
    Si5399   Si       0.87840    0.67148    0.33818    1.000
    N5400    N        0.90117    0.69014    0.36721    1.000
    N5401    N        0.91892    0.75569    0.34399    1.000
    N5402    N        0.88438    0.56686    0.41387    1.000
    Si5403   Si       0.91682    0.54136    0.38737    1.000
    Si5404   Si       0.89527    0.54486    0.44863    1.000
    N5405    N        0.90309    0.62628    0.38968    1.000
    N5406    N        0.89747    0.55765    0.48979    1.000
    N5407    N        0.87601    0.62175    0.47561    1.000
    N5408    N        0.92967    0.67643    0.48077    1.000
    Si5409   Si       0.89457    0.73272    0.36914    1.000
    N5410    N        0.88213    0.67565    0.43390    1.000
    Si5411   Si       0.88811    0.66336    0.47536    1.000
    N5412    N        0.89660    0.73794    0.41277    1.000
    Si5413   Si       0.90959    0.66792    0.40201    1.000
    N5414    N        0.89372    0.61061    0.59376    1.000
    N5415    N        0.91356    0.62261    0.53164    1.000
    Si5416   Si       0.88772    0.59569    0.50724    1.000
    Si5417   Si       0.90042    0.52353    0.58366    1.000
    Si5418   Si       0.91684    0.53236    0.51898    1.000
    N5419    N        0.92268    0.55580    0.55864    1.000
    Si5420   Si       0.92713    0.59902    0.56663    1.000
    N5421    N        0.90879    0.68792    0.56368    1.000
    Si5422   Si       0.90579    0.72692    0.54470    1.000
    Si5423   Si       0.88914    0.65808    0.54002    1.000
    N5424    N        0.91545    0.73966    0.50366    1.000
    Si5425   Si       0.92504    0.68328    0.60382    1.000
    Si5426   Si       0.89900    0.58713    0.68651    1.000
    N5427    N        0.89088    0.55808    0.71875    1.000
    Si5428   Si       0.90258    0.51691    0.71455    1.000
    N5429    N        0.91935    0.62576    0.69969    1.000
    N5430    N        0.87026    0.59688    0.65581    1.000
    Si5431   Si       0.88776    0.63062    0.63400    1.000
    N5432    N        0.90492    0.71644    0.62375    1.000
    N5433    N        0.92449    0.65112    0.63360    1.000
    N5434    N        0.89794    0.67756    0.74186    1.000
    Si5435   Si       0.89891    0.71735    0.72186    1.000
    Si5436   Si       0.91487    0.63706    0.74223    1.000
    N5437    N        0.87397    0.71672    0.68552    1.000
    Si5438   Si       0.88783    0.56955    0.76101    1.000
    N5439    N        0.90231    0.53956    0.84004    1.000
    Si5440   Si       0.88733    0.60718    0.85691    1.000
    N5441    N        0.87922    0.61375    0.75548    1.000
    N5442    N        0.92360    0.60563    0.83346    1.000
    N5443    N        0.92689    0.56046    0.77975    1.000
    N5444    N        0.90450    0.74079    0.85495    1.000
    N5445    N        0.92002    0.67830    0.82287    1.000
    Si5446   Si       0.87843    0.67159    0.83157    1.000
    N5447    N        0.88316    0.74902    0.74898    1.000
    N5448    N        0.88057    0.64888    0.86815    1.000
    N5449    N        0.91464    0.51803    0.93783    1.000
    N5450    N        0.89422    0.59224    0.89809    1.000
    N5451    N        0.91160    0.67622    0.93202    1.000
    Si5452   Si       0.92084    0.71870    0.94298    1.000
    N5453    N        0.90794    0.72150    0.98611    1.000
    Si5454   Si       0.87774    0.66570    0.90934    1.000
    N5455    N        0.92236    0.65546    0.99344    1.000
    Si5456   Si       0.88973    0.68140    0.99597    1.000
    Si5457   Si       0.89875    0.78689    0.06436    1.000
    N5458    N        0.88719    0.79312    0.10621    1.000
    N5459    N        0.88006    0.85493    0.07437    1.000
    Si5460   Si       0.92308    0.85477    0.07524    1.000
    N5461    N        0.91005    0.85895    0.99746    1.000
    N5462    N        0.92664    0.81753    0.05184    1.000
    Si5463   Si       0.89168    0.95135    0.05473    1.000
    N5464    N        0.88405    0.91070    0.03912    1.000
    N5465    N        0.88314    0.97644    0.02172    1.000
    Si5466   Si       0.92066    0.89636    0.01929    1.000
    N5467    N        0.92966    0.96164    0.07250    1.000
    N5468    N        0.91566    0.80801    0.16756    1.000
    Si5469   Si       0.91215    0.85001    0.15568    1.000
    Si5470   Si       0.90185    0.77453    0.14073    1.000
    N5471    N        0.92291    0.88036    0.18580    1.000
    N5472    N        0.88019    0.88112    0.23974    1.000
    N5473    N        0.90209    0.00585    0.12354    1.000
    Si5474   Si       0.92069    0.88777    0.22836    1.000
    N5475    N        0.92838    0.93032    0.24218    1.000
    Si5476   Si       0.87742    0.97149    0.12721    1.000
    N5477    N        0.89070    0.94145    0.15673    1.000
    Si5478   Si       0.92013    0.79698    0.35651    1.000
    N5479    N        0.91181    0.80103    0.25735    1.000
    Si5480   Si       0.92119    0.83442    0.28570    1.000
    N5481    N        0.87502    0.84087    0.28947    1.000
    N5482    N        0.87605    0.80639    0.35826    1.000
    N5483    N        0.93310    0.82759    0.32732    1.000
    N5484    N        0.89613    0.98276    0.27949    1.000
    N5485    N        0.89093    0.91170    0.30092    1.000
    Si5486   Si       0.89879    0.91112    0.34299    1.000
    Si5487   Si       0.91468    0.94261    0.28189    1.000
    N5488    N        0.92180    0.85133    0.46163    1.000
    N5489    N        0.92356    0.84400    0.38919    1.000
    Si5490   Si       0.88218    0.86698    0.45790    1.000
    Si5491   Si       0.90471    0.77960    0.48887    1.000
    Si5492   Si       0.87877    0.84348    0.38316    1.000
    N5493    N        0.92735    0.79080    0.45369    1.000
    Si5494   Si       0.91460    0.93954    0.45892    1.000
    N5495    N        0.88274    0.90996    0.46134    1.000
    N5496    N        0.89736    0.94352    0.37154    1.000
    N5497    N        0.92393    0.99962    0.39914    1.000
    N5498    N        0.89721    0.97892    0.45586    1.000
    Si5499   Si       0.90472    0.85999    0.56813    1.000
    N5500    N        0.92518    0.82378    0.58390    1.000
    N5501    N        0.91995    0.87469    0.53100    1.000
    N5502    N        0.92148    0.80680    0.51821    1.000
    Si5503   Si       0.91078    0.75641    0.60871    1.000
    N5504    N        0.91271    0.89327    0.59473    1.000
    Si5505   Si       0.89496    0.93063    0.58413    1.000
    Si5506   Si       0.91640    0.99771    0.59800    1.000
    N5507    N        0.88467    0.92688    0.54041    1.000
    N5508    N        0.92582    0.95812    0.57868    1.000
    Si5509   Si       0.92463    0.91876    0.52734    1.000
    Si5510   Si       0.92443    0.78552    0.71509    1.000
    Si5511   Si       0.92441    0.82300    0.62726    1.000
    N5512    N        0.88457    0.82854    0.64029    1.000
    N5513    N        0.88520    0.79967    0.70476    1.000
    Si5514   Si       0.89237    0.94929    0.64993    1.000
    N5515    N        0.91384    0.91417    0.66070    1.000
    Si5516   Si       0.88211    0.97223    0.72435    1.000
    N5517    N        0.92101    0.98100    0.63823    1.000
    N5518    N        0.89179    0.92869    0.73177    1.000
    N5519    N        0.92205    0.98852    0.71153    1.000
    Si5520   Si       0.90453    0.90133    0.70163    1.000
    N5521    N        0.90123    0.84641    0.78776    1.000
    N5522    N        0.90045    0.87477    0.84854    1.000
    N5523    N        0.88255    0.78523    0.80609    1.000
    Si5524   Si       0.88449    0.77923    0.84785    1.000
    Si5525   Si       0.87665    0.87294    0.81191    1.000
    Si5526   Si       0.91153    0.76370    0.77955    1.000
    Si5527   Si       0.92716    0.84172    0.85089    1.000
    N5528    N        0.90954    0.97573    0.77629    1.000
    Si5529   Si       0.90402    0.93176    0.77444    1.000
    Si5530   Si       0.88841    0.99535    0.80839    1.000
    N5531    N        0.91248    0.00395    0.84153    1.000
    N5532    N        0.87194    0.91268    0.79678    1.000
    N5533    N        0.90594    0.80877    0.86987    1.000
    Si5534   Si       0.90871    0.78543    0.95732    1.000
    N5535    N        0.87040    0.80025    0.97069    1.000
    N5536    N        0.90850    0.75611    0.92665    1.000
    Si5537   Si       0.92834    0.78667    0.90080    1.000
    Si5538   Si       0.90634    0.90386    0.87966    1.000
    Si5539   Si       0.87554    0.89647    0.93428    1.000
    N5540    N        0.90641    0.97816    0.95243    1.000
    N5541    N        0.91594    0.88996    0.92048    1.000
    Si5542   Si       0.89436    0.95456    0.98553    1.000
    N5543    N        0.95746    0.03109    0.07229    1.000
    N5544    N        0.95184    0.08559    0.02988    1.000
    Si5545   Si       0.95512    0.11248    0.06337    1.000
    Si5546   Si       0.93553    0.04618    0.03608    1.000
    N5547    N        0.98440    0.09515    0.09068    1.000
    N5548    N        0.96554    0.15176    0.05045    1.000
    N5549    N        0.97521    0.22154    0.07705    1.000
    Si5550   Si       0.96310    0.15444    0.00841    1.000
    Si5551   Si       0.98354    0.17933    0.08025    1.000
    Si5552   Si       0.93200    0.23099    0.07104    1.000
    N5553    N        0.97289    0.15958    0.11636    1.000
    N5554    N        0.95231    0.07444    0.21874    1.000
    N5555    N        0.94798    0.04870    0.15150    1.000
    Si5556   Si       0.95594    0.08416    0.17704    1.000
    Si5557   Si       0.97848    0.01971    0.14349    1.000
    Si5558   Si       0.97886    0.18094    0.15517    1.000
    Si5559   Si       0.94643    0.24072    0.17734    1.000
    N5560    N        0.98656    0.24860    0.18587    1.000
    N5561    N        0.96962    0.16033    0.19332    1.000
    N5562    N        0.94215    0.20676    0.15123    1.000
    Si5563   Si       0.92708    0.14692    0.19765    1.000
    Si5564   Si       0.97031    0.05552    0.31941    1.000
    N5565    N        0.95558    0.09148    0.29689    1.000
    N5566    N        0.96071    0.02085    0.29427    1.000
    N5567    N        0.96233    0.06285    0.36536    1.000
    Si5568   Si       0.95417    0.10225    0.25212    1.000
    Si5569   Si       0.93180    0.12176    0.32494    1.000
    N5570    N        0.94441    0.21010    0.33925    1.000
    Si5571   Si       0.97844    0.18564    0.33153    1.000
    N5572    N        0.94208    0.20084    0.27191    1.000
    N5573    N        0.96633    0.14715    0.32035    1.000
    Si5574   Si       0.98313    0.21735    0.26411    1.000
    Si5575   Si       0.94083    0.24255    0.36684    1.000
    Si5576   Si       0.96172    0.07503    0.45462    1.000
    N5577    N        0.95172    0.10129    0.42232    1.000
    N5578    N        0.97313    0.09835    0.49004    1.000
    Si5579   Si       0.93184    0.08134    0.38910    1.000
    Si5580   Si       0.94354    0.12960    0.49528    1.000
    N5581    N        0.95967    0.17964    0.40788    1.000
    Si5582   Si       0.93408    0.19524    0.43907    1.000
    N5583    N        0.95479    0.22941    0.45510    1.000
    N5584    N        0.98102    0.24326    0.38516    1.000
    N5585    N        0.93886    0.15640    0.46037    1.000
    Si5586   Si       0.96504    0.14216    0.42842    1.000
    Si5587   Si       0.93546    0.24671    0.49310    1.000
    N5588    N        0.97221    0.07305    0.55400    1.000
    Si5589   Si       0.96863    0.06427    0.59752    1.000
    Si5590   Si       0.94354    0.03882    0.54645    1.000
    N5591    N        0.93879    0.03164    0.58865    1.000
    N5592    N        0.97065    0.22819    0.51405    1.000
    N5593    N        0.95554    0.15219    0.52857    1.000
    N5594    N        0.95085    0.15395    0.59890    1.000
    N5595    N        0.97102    0.24507    0.58205    1.000
    Si5596   Si       0.99081    0.17260    0.60373    1.000
    N5597    N        0.94954    0.08831    0.62717    1.000
    N5598    N        0.96518    0.03110    0.66531    1.000
    Si5599   Si       0.95399    0.12191    0.69988    1.000
    Si5600   Si       0.93605    0.06432    0.66077    1.000
    Si5601   Si       0.93338    0.12776    0.62780    1.000
    N5602    N        0.93221    0.08501    0.69792    1.000
    N5603    N        0.98734    0.20546    0.63256    1.000
    N5604    N        0.93386    0.15104    0.72578    1.000
    N5605    N        0.94853    0.14625    0.66392    1.000
    Si5606   Si       0.97282    0.18459    0.66582    1.000
    N5607    N        0.93769    0.21065    0.68037    1.000
    N5608    N        0.95940    0.05048    0.82616    1.000
    Si5609   Si       0.95878    0.06503    0.78305    1.000
    N5610    N        0.96217    0.11143    0.84336    1.000
    N5611    N        0.94356    0.03894    0.75273    1.000
    Si5612   Si       0.92785    0.04314    0.85234    1.000
    N5613    N        0.93083    0.09723    0.76913    1.000
    Si5614   Si       0.94450    0.14945    0.83363    1.000
    N5615    N        0.95324    0.16223    0.79288    1.000
    N5616    N        0.97540    0.22550    0.77381    1.000
    N5617    N        0.96348    0.17370    0.86599    1.000
    Si5618   Si       0.93279    0.23688    0.75828    1.000
    N5619    N        0.94853    0.24763    0.86659    1.000
    N5620    N        0.94322    0.05651    0.89170    1.000
    N5621    N        0.94968    0.08579    0.95488    1.000
    Si5622   Si       0.97149    0.02503    0.90494    1.000
    Si5623   Si       0.95647    0.09296    0.91180    1.000
    N5624    N        0.96192    0.02040    0.94727    1.000
    Si5625   Si       0.97516    0.08837    0.99069    1.000
    N5626    N        0.97965    0.16281    0.93101    1.000
    Si5627   Si       0.94435    0.16566    0.90347    1.000
    Si5628   Si       0.95140    0.25306    0.95700    1.000
    N5629    N        0.97334    0.23007    0.92861    1.000
    Si5630   Si       0.98393    0.25037    0.89227    1.000
    N5631    N        0.97251    0.19259    0.99035    1.000
    Si5632   Si       0.94853    0.36048    0.09301    1.000
    Si5633   Si       0.94792    0.33936    0.02374    1.000
    N5634    N        0.94606    0.37268    0.05093    1.000
    N5635    N        0.98787    0.32280    0.02580    1.000
    Si5636   Si       0.94663    0.41307    0.03640    1.000
    N5637    N        0.98585    0.43020    0.02772    1.000
    N5638    N        0.98410    0.49534    0.04742    1.000
    N5639    N        0.95284    0.46497    0.12191    1.000
    Si5640   Si       0.93027    0.42858    0.11122    1.000
    N5641    N        0.94772    0.29559    0.21738    1.000
    N5642    N        0.95046    0.37942    0.20866    1.000
    Si5643   Si       0.93929    0.31258    0.17754    1.000
    N5644    N        0.97052    0.33350    0.15721    1.000
    Si5645   Si       0.96072    0.37671    0.16724    1.000
    Si5646   Si       0.95560    0.49296    0.20774    1.000
    N5647    N        0.92318    0.47834    0.18410    1.000
    N5648    N        0.94106    0.39017    0.12689    1.000
    N5649    N        0.98053    0.46097    0.22713    1.000
    N5650    N        0.95233    0.34021    0.27309    1.000
    Si5651   Si       0.95116    0.37334    0.33735    1.000
    Si5652   Si       0.95950    0.29252    0.27647    1.000
    N5653    N        0.93394    0.33694    0.35123    1.000
    N5654    N        0.98729    0.26100    0.25685    1.000
    Si5655   Si       0.97418    0.37084    0.24482    1.000
    N5656    N        0.95710    0.39992    0.37135    1.000
    Si5657   Si       0.95643    0.44643    0.26018    1.000
    N5658    N        0.97370    0.47519    0.28900    1.000
    N5659    N        0.97123    0.40705    0.26692    1.000
    N5660    N        0.96240    0.47112    0.36455    1.000
    N5661    N        0.93558    0.29002    0.48548    1.000
    N5662    N        0.96381    0.35258    0.47985    1.000
    Si5663   Si       0.95833    0.31409    0.45645    1.000
    N5664    N        0.93192    0.31215    0.42166    1.000
    N5665    N        0.96517    0.44433    0.48078    1.000
    Si5666   Si       0.98239    0.43358    0.37458    1.000
    Si5667   Si       0.94247    0.36889    0.51286    1.000
    N5668    N        0.93058    0.33374    0.62117    1.000
    N5669    N        0.96395    0.39715    0.60809    1.000
    N5670    N        0.96434    0.40061    0.53504    1.000
    Si5671   Si       0.94260    0.40754    0.57153    1.000
    Si5672   Si       0.94628    0.47395    0.60777    1.000
    Si5673   Si       0.98517    0.50371    0.51843    1.000
    N5674    N        0.93436    0.44988    0.57338    1.000
    Si5675   Si       0.96273    0.29424    0.72960    1.000
    Si5676   Si       0.95494    0.36664    0.63861    1.000
    N5677    N        0.97088    0.27993    0.64532    1.000
    N5678    N        0.95600    0.32250    0.69695    1.000
    N5679    N        0.93187    0.26488    0.72601    1.000
    Si5680   Si       0.93098    0.29234    0.63595    1.000
    N5681    N        0.96008    0.44983    0.71166    1.000
    Si5682   Si       0.97151    0.49125    0.70599    1.000
    Si5683   Si       0.95541    0.43242    0.67195    1.000
    N5684    N        0.93322    0.45597    0.64553    1.000
    N5685    N        0.93853    0.39173    0.67042    1.000
    N5686    N        0.95593    0.30774    0.76983    1.000
    Si5687   Si       0.97276    0.35333    0.85713    1.000
    N5688    N        0.97826    0.31753    0.83622    1.000
    N5689    N        0.94751    0.37871    0.83126    1.000
    Si5690   Si       0.98949    0.31642    0.79587    1.000
    N5691    N        0.94594    0.41730    0.77441    1.000
    Si5692   Si       0.94754    0.42010    0.81729    1.000
    N5693    N        0.97617    0.44257    0.83951    1.000
    Si5694   Si       0.97664    0.43619    0.74988    1.000
    N5695    N        0.94309    0.28815    0.93325    1.000
    Si5696   Si       0.97451    0.31681    0.92240    1.000
    N5697    N        0.95816    0.34909    0.89860    1.000
    N5698    N        0.98130    0.26790    0.98505    1.000
    N5699    N        0.93336    0.35236    0.98458    1.000
    N5700    N        0.98208    0.39629    0.96718    1.000
    Si5701   Si       0.93873    0.39243    0.96532    1.000
    N5702    N        0.93914    0.46695    0.89932    1.000
    Si5703   Si       0.97470    0.46237    0.87672    1.000
    N5704    N        0.98635    0.50574    0.87852    1.000
    N5705    N        0.95571    0.60848    0.02638    1.000
    N5706    N        0.97376    0.56189    0.07781    1.000
    Si5707   Si       0.97769    0.60370    0.06378    1.000
    N5708    N        0.95059    0.62387    0.09341    1.000
    Si5709   Si       0.93948    0.54184    0.09391    1.000
    N5710    N        0.94814    0.54196    0.00038    1.000
    Si5711   Si       0.93215    0.58286    0.00124    1.000
    Si5712   Si       0.94732    0.50804    0.02914    1.000
    N5713    N        0.97998    0.67292    0.04331    1.000
    Si5714   Si       0.96160    0.64876    0.01159    1.000
    N5715    N        0.97619    0.73398    0.01342    1.000
    Si5716   Si       0.93340    0.74528    0.01258    1.000
    N5717    N        0.98121    0.73225    0.08643    1.000
    Si5718   Si       0.95520    0.63193    0.24423    1.000
    Si5719   Si       0.93249    0.56110    0.23102    1.000
    Si5720   Si       0.96388    0.54786    0.16459    1.000
    N5721    N        0.94368    0.57450    0.19103    1.000
    N5722    N        0.98323    0.51364    0.18254    1.000
    N5723    N        0.95000    0.52239    0.24017    1.000
    N5724    N        0.93766    0.52901    0.13455    1.000
    Si5725   Si       0.93529    0.61428    0.17478    1.000
    N5726    N        0.97207    0.63084    0.15642    1.000
    Si5727   Si       0.96320    0.65463    0.12226    1.000
    Si5728   Si       0.93877    0.71993    0.14265    1.000
    N5729    N        0.98149    0.70270    0.23551    1.000
    Si5730   Si       0.98722    0.72933    0.20109    1.000
    N5731    N        0.97904    0.71580    0.16065    1.000
    N5732    N        0.95147    0.60040    0.33723    1.000
    Si5733   Si       0.94088    0.55644    0.32822    1.000
    N5734    N        0.97674    0.54825    0.30095    1.000
    N5735    N        0.95538    0.53630    0.36541    1.000
    Si5736   Si       0.95557    0.51358    0.28171    1.000
    N5737    N        0.95654    0.59003    0.25463    1.000
    Si5738   Si       0.98585    0.50685    0.36416    1.000
    Si5739   Si       0.94990    0.70592    0.26474    1.000
    N5740    N        0.96782    0.71400    0.30451    1.000
    Si5741   Si       0.95839    0.73893    0.33591    1.000
    N5742    N        0.93627    0.66315    0.26893    1.000
    Si5743   Si       0.96748    0.53078    0.45607    1.000
    N5744    N        0.96017    0.61633    0.45722    1.000
    N5745    N        0.93443    0.53400    0.42924    1.000
    N5746    N        0.95376    0.52124    0.49666    1.000
    N5747    N        0.96860    0.72856    0.37786    1.000
    Si5748   Si       0.97785    0.68582    0.38645    1.000
    Si5749   Si       0.93458    0.75702    0.42471    1.000
    Si5750   Si       0.94828    0.71465    0.48763    1.000
    N5751    N        0.95018    0.66840    0.41532    1.000
    Si5752   Si       0.95960    0.65800    0.45662    1.000
    N5753    N        0.96312    0.73718    0.45246    1.000
    Si5754   Si       0.96486    0.54585    0.58472    1.000
    N5755    N        0.96989    0.59021    0.57474    1.000
    N5756    N        0.93689    0.51886    0.60898    1.000
    N5757    N        0.98019    0.51636    0.55868    1.000
    N5758    N        0.96587    0.69263    0.59304    1.000
    N5759    N        0.97165    0.71378    0.52490    1.000
    Si5760   Si       0.96925    0.72873    0.56688    1.000
    N5761    N        0.93182    0.75267    0.56856    1.000
    Si5762   Si       0.96678    0.58658    0.68978    1.000
    N5763    N        0.96806    0.58561    0.73240    1.000
    N5764    N        0.94484    0.51821    0.72875    1.000
    N5765    N        0.97992    0.62603    0.67680    1.000
    Si5766   Si       0.93466    0.52718    0.65117    1.000
    N5767    N        0.93342    0.56656    0.66861    1.000
    N5768    N        0.97239    0.50572    0.66611    1.000
    N5769    N        0.93215    0.74306    0.71013    1.000
    N5770    N        0.96659    0.68273    0.69181    1.000
    Si5771   Si       0.97035    0.72484    0.70227    1.000
    Si5772   Si       0.94532    0.65172    0.67419    1.000
    N5773    N        0.99098    0.74736    0.67264    1.000
    N5774    N        0.97628    0.56040    0.83289    1.000
    Si5775   Si       0.96046    0.54828    0.75484    1.000
    Si5776   Si       0.98299    0.62022    0.75510    1.000
    Si5777   Si       0.93316    0.56500    0.82440    1.000
    N5778    N        0.94596    0.63684    0.77324    1.000
    Si5779   Si       0.94440    0.64181    0.81772    1.000
    N5780    N        0.97210    0.71430    0.85656    1.000
    N5781    N        0.94460    0.73827    0.79526    1.000
    N5782    N        0.97930    0.64809    0.84391    1.000
    Si5783   Si       0.98460    0.73368    0.78048    1.000
    Si5784   Si       0.93462    0.71875    0.83254    1.000
    Si5785   Si       0.98775    0.63713    0.88588    1.000
    N5786    N        0.95648    0.55605    0.90172    1.000
    Si5787   Si       0.95164    0.51294    0.90842    1.000
    Si5788   Si       0.94378    0.51436    0.97001    1.000
    N5789    N        0.95232    0.62898    0.91059    1.000
    Si5790   Si       0.93341    0.58975    0.91659    1.000
    N5791    N        0.97847    0.50939    0.94656    1.000
    N5792    N        0.93218    0.59624    0.95960    1.000
    N5793    N        0.98187    0.64951    0.97294    1.000
    N5794    N        0.96435    0.72317    0.94700    1.000
    Si5795   Si       0.94116    0.64488    0.95217    1.000
    Si5796   Si       0.93876    0.82518    0.01099    1.000
    N5797    N        0.98202    0.83137    0.00733    1.000
    Si5798   Si       0.97876    0.77342    0.10432    1.000
    Si5799   Si       0.97674    0.83809    0.11479    1.000
    N5800    N        0.93499    0.84905    0.11822    1.000
    N5801    N        0.98600    0.80967    0.08263    1.000
    N5802    N        0.93307    0.78604    0.99391    1.000
    N5803    N        0.92964    0.93210    0.99932    1.000
    N5804    N        0.94467    0.88473    0.05429    1.000
    Si5805   Si       0.96061    0.94625    0.09753    1.000
    Si5806   Si       0.93524    0.99954    0.09350    1.000
    N5807    N        0.98412    0.97893    0.00282    1.000
    N5808    N        0.95874    0.76283    0.20389    1.000
    N5809    N        0.98127    0.81767    0.15292    1.000
    Si5810   Si       0.95379    0.78862    0.17016    1.000
    N5811    N        0.94506    0.76422    0.13262    1.000
    N5812    N        0.93622    0.00402    0.22258    1.000
    Si5813   Si       0.92791    0.92138    0.16620    1.000
    N5814    N        0.95378    0.94859    0.18635    1.000
    Si5815   Si       0.98544    0.96170    0.15889    1.000
    N5816    N        0.95764    0.91827    0.13310    1.000
    N5817    N        0.96694    0.98348    0.12161    1.000
    Si5818   Si       0.95006    0.96514    0.22677    1.000
    Si5819   Si       0.94764    0.85591    0.35476    1.000
    N5820    N        0.94248    0.86271    0.25766    1.000
    N5821    N        0.98077    0.77730    0.33787    1.000
    N5822    N        0.98257    0.77771    0.26205    1.000
    Si5823   Si       0.98521    0.85519    0.25379    1.000
    N5824    N        0.98974    0.85068    0.36123    1.000
    Si5825   Si       0.94235    0.77194    0.24379    1.000
    N5826    N        0.95219    0.94953    0.30453    1.000
    Si5827   Si       0.97062    0.92481    0.33526    1.000
    Si5828   Si       0.97925    0.98162    0.29192    1.000
    N5829    N        0.93978    0.89657    0.34755    1.000
    N5830    N        0.98581    0.97139    0.25027    1.000
    N5831    N        0.97378    0.95757    0.36586    1.000
    Si5832   Si       0.93975    0.82440    0.42763    1.000
    N5833    N        0.94632    0.78720    0.39525    1.000
    N5834    N        0.98154    0.84158    0.43179    1.000
    Si5835   Si       0.98328    0.76975    0.38161    1.000
    N5836    N        0.96880    0.99456    0.45159    1.000
    Si5837   Si       0.93519    0.95852    0.38977    1.000
    N5838    N        0.94499    0.93563    0.42673    1.000
    Si5839   Si       0.98755    0.92261    0.43493    1.000
    Si5840   Si       0.96387    0.97881    0.49220    1.000
    N5841    N        0.93582    0.94577    0.49463    1.000
    N5842    N        0.98903    0.90116    0.47230    1.000
    Si5843   Si       0.94021    0.79458    0.55580    1.000
    N5844    N        0.98323    0.80009    0.55808    1.000
    Si5845   Si       0.93355    0.84468    0.50255    1.000
    N5846    N        0.97821    0.84158    0.50205    1.000
    Si5847   Si       0.96421    0.94216    0.58161    1.000
    N5848    N        0.96644    0.91967    0.54648    1.000
    N5849    N        0.97135    0.91725    0.61678    1.000
    N5850    N        0.96374    0.00721    0.52599    1.000
    N5851    N        0.93940    0.87952    0.71402    1.000
    Si5852   Si       0.95928    0.84876    0.69027    1.000
    Si5853   Si       0.97053    0.78388    0.65999    1.000
    N5854    N        0.95232    0.85394    0.64419    1.000
    N5855    N        0.95304    0.80641    0.69221    1.000
    N5856    N        0.93448    0.78123    0.63490    1.000
    Si5857   Si       0.93644    0.89357    0.63186    1.000
    Si5858   Si       0.96236    0.89417    0.74866    1.000
    N5859    N        0.95841    0.82576    0.82295    1.000
    N5860    N        0.97617    0.85747    0.76630    1.000
    Si5861   Si       0.94365    0.83068    0.78177    1.000
    Si5862   Si       0.98495    0.81033    0.85393    1.000
    N5863    N        0.93200    0.79545    0.75736    1.000
    Si5864   Si       0.94071    0.97311    0.85452    1.000
    Si5865   Si       0.95956    0.92084    0.82295    1.000
    N5866    N        0.94156    0.91556    0.78349    1.000
    N5867    N        0.97756    0.98226    0.75847    1.000
    N5868    N        0.97462    0.96215    0.82688    1.000
    Si5869   Si       0.93866    0.99627    0.75011    1.000
    N5870    N        0.92984    0.93051    0.85606    1.000
    N5871    N        0.92710    0.81734    0.93318    1.000
    N5872    N        0.97605    0.87142    0.94705    1.000
    Si5873   Si       0.94361    0.85495    0.92230    1.000
    N5874    N        0.96650    0.78280    0.88436    1.000
    N5875    N        0.95865    0.85282    0.88024    1.000
    N5876    N        0.96811    0.94422    0.94796    1.000
    Si5877   Si       0.94600    0.97873    0.93520    1.000
    Si5878   Si       0.97040    0.94086    0.99312    1.000
    N5879    N        0.95444    0.98647    0.89327    1.000
