# CIF file generated by openbabel 3.1.1, see https://openbabel.org
data_I
_chemical_name_common '3.01-62.aims'
_cell_length_a 39.836
_cell_length_b 39.836
_cell_length_c 39.836
_cell_angle_alpha 90
_cell_angle_beta 90
_cell_angle_gamma 90
loop_
    _atom_site_label
    _atom_site_type_symbol
    _atom_site_fract_x
    _atom_site_fract_y
    _atom_site_fract_z
    _atom_site_occupancy
    N0       N        0.09438    0.03964    0.08479    1.000
    Si1      Si       0.09633    0.03894    0.01520    1.000
    Si2      Si       0.04989    0.04374    0.09255    1.000
    N3       N        0.99344    0.04289    0.03206    1.000
    N4       N        0.05816    0.04780    0.00084    1.000
    N5       N        0.21306    0.04435    0.09868    1.000
    N6       N        0.22265    0.02608    0.03271    1.000
    Si7      Si       0.22890    0.06020    0.06062    1.000
    Si8      Si       0.17570    0.04687    0.12074    1.000
    Si9      Si       0.23841    0.01115    0.11489    1.000
    N10      N        0.04212    0.05893    0.19524    1.000
    Si11     Si       0.07754    0.03632    0.20394    1.000
    Si12     Si       0.01280    0.04838    0.16348    1.000
    N13      N        0.03300    0.03102    0.13051    1.000
    N14      N        0.11372    0.03303    0.17707    1.000
    Si15     Si       0.02316    0.06349    0.23546    1.000
    N16      N        0.09167    0.03925    0.24458    1.000
    N17      N        0.15418    0.01123    0.12676    1.000
    N18      N        0.20742    0.03637    0.21770    1.000
    Si19     Si       0.23457    0.03278    0.18269    1.000
    Si20     Si       0.13931    0.06785    0.17853    1.000
    N21      N        0.14813    0.06889    0.22192    1.000
    Si22     Si       0.06672    0.03291    0.27911    1.000
    N23      N        0.03505    0.05115    0.35285    1.000
    N24      N        0.08420    0.05882    0.31190    1.000
    Si25     Si       0.09823    0.01765    0.33206    1.000
    N26      N        0.03004    0.02638    0.25659    1.000
    Si27     Si       0.22668    0.02821    0.33368    1.000
    Si28     Si       0.13257    0.04577    0.25582    1.000
    N29      N        0.20181    0.06336    0.33239    1.000
    N30      N        0.23777    0.02424    0.29166    1.000
    N31      N        0.08983    0.02179    0.37496    1.000
    Si32     Si       0.07442    0.01645    0.46034    1.000
    N33      N        0.04801    0.04221    0.48287    1.000
    N34      N        0.00346    0.02268    0.40225    1.000
    N35      N        0.10839    0.03991    0.44197    1.000
    Si36     Si       0.04276    0.01787    0.38067    1.000
    Si37     Si       0.00521    0.03587    0.48951    1.000
    N38      N        0.15892    0.01268    0.39658    1.000
    Si39     Si       0.11727    0.01476    0.40710    1.000
    N40      N        0.21312    0.05133    0.43202    1.000
    Si41     Si       0.18750    0.01355    0.42843    1.000
    N42      N        0.07846    0.03409    0.54503    1.000
    N43      N        0.02882    0.04599    0.59144    1.000
    Si44     Si       0.07102    0.04999    0.58374    1.000
    N45      N        0.99630    0.02835    0.53199    1.000
    Si46     Si       0.06708    0.06288    0.51619    1.000
    N47      N        0.09550    0.03572    0.61459    1.000
    Si48     Si       0.00379    0.06165    0.55746    1.000
    N49      N        0.15040    0.05348    0.57924    1.000
    N50      N        0.20572    0.01882    0.59464    1.000
    N51      N        0.20490    0.03518    0.50652    1.000
    Si52     Si       0.13136    0.05919    0.61815    1.000
    Si53     Si       0.16730    0.01300    0.57414    1.000
    Si54     Si       0.01869    0.01632    0.62235    1.000
    N55      N        0.10189    0.04120    0.68122    1.000
    Si56     Si       0.07436    0.05720    0.71290    1.000
    Si57     Si       0.99757    0.05377    0.68236    1.000
    Si58     Si       0.08976    0.01297    0.65114    1.000
    N59      N        0.06685    0.02489    0.74136    1.000
    Si60     Si       0.19854    0.04771    0.62657    1.000
    Si61     Si       0.14680    0.04407    0.68649    1.000
    N62      N        0.17565    0.02399    0.71208    1.000
    N63      N        0.15777    0.03734    0.64204    1.000
    N64      N        0.22079    0.03773    0.66131    1.000
    N65      N        0.00584    0.04937    0.82260    1.000
    N66      N        0.10763    0.05057    0.79811    1.000
    Si67     Si       0.09536    0.01399    0.77281    1.000
    N68      N        0.06316    0.06423    0.86294    1.000
    N69      N        0.11757    0.01914    0.86447    1.000
    Si70     Si       0.13105    0.04905    0.83443    1.000
    N71      N        0.17503    0.05220    0.82716    1.000
    Si72     Si       0.20988    0.02582    0.81815    1.000
    N73      N        0.20761    0.02500    0.77667    1.000
    Si74     Si       0.07428    0.02391    0.87281    1.000
    Si75     Si       0.02039    0.04467    0.92458    1.000
    N76      N        0.00069    0.02829    0.96070    1.000
    N77      N        0.05136    0.01708    0.91151    1.000
    Si78     Si       0.01836    0.05726    0.98904    1.000
    N79      N        0.99707    0.05898    0.88943    1.000
    N80      N        0.09927    0.06662    0.92004    1.000
    N81      N        0.11267    0.03561    0.97357    1.000
    N82      N        0.23323    0.05187    0.90802    1.000
    Si83     Si       0.19961    0.02861    0.92159    1.000
    Si84     Si       0.13082    0.04473    0.93418    1.000
    N85      N        0.16892    0.06282    0.92736    1.000
    Si86     Si       0.23187    0.03496    0.98989    1.000
    N87      N        0.09798    0.11183    0.08061    1.000
    Si88     Si       0.00698    0.08100    0.04496    1.000
    N89      N        0.03915    0.07950    0.07170    1.000
    N90      N        0.00968    0.09943    0.00597    1.000
    Si91     Si       0.05424    0.11820    0.08161    1.000
    N92      N        0.05243    0.12821    0.12348    1.000
    Si93     Si       0.11744    0.07359    0.07570    1.000
    N94      N        0.20132    0.09425    0.05212    1.000
    Si95     Si       0.18427    0.10951    0.08888    1.000
    Si96     Si       0.20408    0.10986    0.01077    1.000
    N97      N        0.15668    0.07697    0.09445    1.000
    Si98     Si       0.12846    0.10881    0.00473    1.000
    N99      N        0.11788    0.07395    0.03084    1.000
    N100     N        0.21029    0.11555    0.12314    1.000
    N101     N        0.00159    0.08914    0.14705    1.000
    N102     N        0.05363    0.12666    0.18538    1.000
    N103     N        0.11757    0.10137    0.16178    1.000
    Si104    Si       0.02235    0.12468    0.15612    1.000
    Si105    Si       0.08407    0.12566    0.15140    1.000
    N106     N        0.17879    0.06648    0.16048    1.000
    N107     N        0.19440    0.11316    0.20305    1.000
    Si108    Si       0.21079    0.10152    0.16424    1.000
    Si109    Si       0.19065    0.07711    0.22663    1.000
    Si110    Si       0.02361    0.11109    0.29357    1.000
    N111     N        0.11045    0.09852    0.35607    1.000
    N112     N        0.04642    0.12048    0.33279    1.000
    N113     N        0.04037    0.10114    0.25408    1.000
    N114     N        0.99468    0.08187    0.30283    1.000
    Si115    Si       0.06736    0.08268    0.35425    1.000
    Si116    Si       0.11390    0.09002    0.31304    1.000
    Si117    Si       0.99605    0.06956    0.34479    1.000
    Si118    Si       0.02650    0.12639    0.37051    1.000
    N119     N        0.17168    0.11790    0.32997    1.000
    Si120    Si       0.18296    0.08639    0.29985    1.000
    Si121    Si       0.19482    0.09731    0.36059    1.000
    N122     N        0.21020    0.08386    0.26485    1.000
    N123     N        0.23127    0.11748    0.36206    1.000
    N124     N        0.14474    0.07053    0.28971    1.000
    N125     N        0.09941    0.08675    0.49644    1.000
    N126     N        0.05685    0.10473    0.39339    1.000
    N127     N        0.11374    0.10828    0.42940    1.000
    Si128    Si       0.11982    0.07864    0.45910    1.000
    Si129    Si       0.19007    0.09013    0.43402    1.000
    Si130    Si       0.13343    0.11051    0.39134    1.000
    N131     N        0.23364    0.08972    0.47910    1.000
    N132     N        0.16470    0.08053    0.46777    1.000
    N133     N        0.17029    0.08888    0.39446    1.000
    N134     N        0.07769    0.09405    0.58632    1.000
    N135     N        0.03502    0.08446    0.53768    1.000
    Si136    Si       0.04970    0.11640    0.56198    1.000
    Si137    Si       0.10768    0.12299    0.60233    1.000
    N138     N        0.13944    0.12473    0.57222    1.000
    N139     N        0.19091    0.09958    0.53761    1.000
    Si140    Si       0.16988    0.09282    0.57595    1.000
    N141     N        0.19907    0.08834    0.60930    1.000
    Si142    Si       0.23698    0.10922    0.61782    1.000
    Si143    Si       0.19541    0.07685    0.49937    1.000
    N144     N        0.03768    0.07090    0.69290    1.000
    N145     N        0.09509    0.08702    0.73688    1.000
    Si146    Si       0.02104    0.11156    0.68283    1.000
    N147     N        0.15780    0.08797    0.69528    1.000
    Si148    Si       0.14250    0.11918    0.66927    1.000
    N149     N        0.12909    0.09981    0.63108    1.000
    N150     N        0.21412    0.12444    0.73276    1.000
    Si151    Si       0.17300    0.11024    0.72958    1.000
    N152     N        0.02262    0.11771    0.85304    1.000
    N153     N        0.10912    0.12101    0.79854    1.000
    Si154    Si       0.02138    0.07427    0.85432    1.000
    Si155    Si       0.11756    0.08629    0.77558    1.000
    N156     N        0.12605    0.08955    0.85596    1.000
    N157     N        0.22639    0.09264    0.79322    1.000
    N158     N        0.16057    0.08727    0.76509    1.000
    Si159    Si       0.18350    0.08883    0.80320    1.000
    N160     N        0.17418    0.12610    0.82250    1.000
    Si161    Si       0.13241    0.12852    0.83365    1.000
    Si162    Si       0.09120    0.08806    0.88560    1.000
    N163     N        0.03768    0.07877    0.95084    1.000
    N164     N        0.09935    0.10811    0.97338    1.000
    Si165    Si       0.01437    0.11672    0.95901    1.000
    N166     N        0.07759    0.12536    0.90228    1.000
    Si167    Si       0.07904    0.06930    0.96193    1.000
    Si168    Si       0.17226    0.10417    0.94062    1.000
    N169     N        0.23371    0.08287    0.99609    1.000
    N170     N        0.16739    0.10569    0.98432    1.000
    N171     N        0.21098    0.11935    0.92650    1.000
    N172     N        0.03905    0.14922    0.05273    1.000
    Si173    Si       0.01124    0.14510    0.01802    1.000
    N174     N        0.09846    0.17739    0.08453    1.000
    Si175    Si       0.23136    0.16177    0.05117    1.000
    Si176    Si       0.12353    0.14506    0.06972    1.000
    N177     N        0.12812    0.14659    0.02668    1.000
    N178     N        0.16334    0.14851    0.08461    1.000
    N179     N        0.21282    0.15264    0.01238    1.000
    N180     N        0.09612    0.14742    0.22914    1.000
    N181     N        0.09883    0.16669    0.15616    1.000
    N182     N        0.03301    0.17354    0.23227    1.000
    N183     N        0.00337    0.16486    0.15879    1.000
    Si184    Si       0.05470    0.13306    0.22799    1.000
    Si185    Si       0.11138    0.17251    0.19756    1.000
    Si186    Si       0.18264    0.15311    0.21878    1.000
    N187     N        0.15298    0.17905    0.19445    1.000
    N188     N        0.21940    0.17435    0.21776    1.000
    Si189    Si       0.07411    0.15513    0.32387    1.000
    N190     N        0.00044    0.14617    0.28682    1.000
    N191     N        0.10650    0.17704    0.34325    1.000
    N192     N        0.10567    0.12978    0.29849    1.000
    Si193    Si       0.02123    0.18266    0.27648    1.000
    N194     N        0.01926    0.16810    0.37731    1.000
    Si195    Si       0.11977    0.15330    0.26511    1.000
    Si196    Si       0.14337    0.15017    0.33879    1.000
    N197     N        0.16185    0.15136    0.25783    1.000
    N198     N        0.16866    0.18427    0.32400    1.000
    N199     N        0.08086    0.16597    0.40437    1.000
    N200     N        0.06760    0.14145    0.46631    1.000
    Si201    Si       0.05072    0.18222    0.47474    1.000
    Si202    Si       0.07583    0.12873    0.42576    1.000
    N203     N        0.14027    0.18243    0.43980    1.000
    N204     N        0.14789    0.15362    0.38352    1.000
    Si205    Si       0.23172    0.14376    0.39514    1.000
    N206     N        0.21198    0.18259    0.39179    1.000
    Si207    Si       0.18060    0.16969    0.42554    1.000
    N208     N        0.20271    0.13274    0.42790    1.000
    N209     N        0.01745    0.14584    0.56868    1.000
    N210     N        0.07394    0.14523    0.53739    1.000
    Si211    Si       0.04254    0.17509    0.54793    1.000
    N212     N        0.09083    0.16059    0.61306    1.000
    Si213    Si       0.09084    0.12999    0.49998    1.000
    N214     N        0.02503    0.18310    0.50857    1.000
    Si215    Si       0.14373    0.15829    0.54504    1.000
    N216     N        0.18549    0.16944    0.55423    1.000
    Si217    Si       0.21391    0.13691    0.54547    1.000
    N218     N        0.13051    0.15197    0.50337    1.000
    N219     N        0.23627    0.15030    0.51156    1.000
    Si220    Si       0.07389    0.15814    0.65458    1.000
    N221     N        0.01646    0.14528    0.70994    1.000
    N222     N        0.10171    0.13673    0.68034    1.000
    N223     N        0.04034    0.13103    0.64921    1.000
    Si224    Si       0.10106    0.12772    0.72245    1.000
    Si225    Si       0.19627    0.17116    0.64679    1.000
    N226     N        0.17143    0.15051    0.67378    1.000
    Si227    Si       0.15538    0.17675    0.70391    1.000
    N228     N        0.14275    0.14216    0.73151    1.000
    N229     N        0.23103    0.14600    0.63983    1.000
    N230     N        0.01173    0.15165    0.78558    1.000
    Si231    Si       0.10000    0.16134    0.78187    1.000
    Si232    Si       0.99652    0.13626    0.82372    1.000
    Si233    Si       0.03252    0.16272    0.74953    1.000
    N234     N        0.05115    0.17957    0.87188    1.000
    N235     N        0.07465    0.15296    0.74833    1.000
    N236     N        0.12200    0.16181    0.85821    1.000
    Si237    Si       0.20088    0.15995    0.83426    1.000
    N238     N        0.13714    0.18228    0.78454    1.000
    Si239    Si       0.04120    0.14096    0.88586    1.000
    N240     N        0.01026    0.13929    0.91785    1.000
    N241     N        0.09192    0.17433    0.95109    1.000
    N242     N        0.03139    0.15371    0.98103    1.000
    Si243    Si       0.10133    0.13357    0.93782    1.000
    Si244    Si       0.06117    0.18603    0.98098    1.000
    N245     N        0.18813    0.16865    0.87582    1.000
    N246     N        0.20144    0.18513    0.94346    1.000
    Si247    Si       0.21580    0.16013    0.91058    1.000
    Si248    Si       0.14742    0.16491    0.89260    1.000
    N249     N        0.14334    0.13370    0.92391    1.000
    N250     N        0.04723    0.22287    0.07229    1.000
    Si251    Si       0.00602    0.22957    0.06624    1.000
    N252     N        0.99430    0.21559    0.02709    1.000
    N253     N        0.08162    0.19318    0.02013    1.000
    Si254    Si       0.11095    0.19277    0.12325    1.000
    Si255    Si       0.06445    0.18528    0.05808    1.000
    N256     N        0.14659    0.21214    0.05459    1.000
    Si257    Si       0.17124    0.19243    0.08552    1.000
    Si258    Si       0.12721    0.19233    0.02096    1.000
    N259     N        0.21297    0.19481    0.07521    1.000
    N260     N        0.21275    0.22284    0.00382    1.000
    Si261    Si       0.05688    0.21138    0.22365    1.000
    N262     N        0.09528    0.21184    0.20354    1.000
    N263     N        0.02926    0.22487    0.19293    1.000
    N264     N        0.09504    0.23080    0.13097    1.000
    Si265    Si       0.00782    0.18670    0.19717    1.000
    Si266    Si       0.10119    0.24269    0.17305    1.000
    N267     N        0.20165    0.22410    0.18204    1.000
    N268     N        0.15456    0.20179    0.12739    1.000
    Si269    Si       0.21500    0.21793    0.22492    1.000
    Si270    Si       0.16303    0.21379    0.16840    1.000
    Si271    Si       0.05198    0.22703    0.32898    1.000
    N272     N        0.06181    0.23171    0.26096    1.000
    Si273    Si       0.10181    0.23462    0.27595    1.000
    N274     N        0.99273    0.21955    0.27627    1.000
    N275     N        0.09397    0.24056    0.31914    1.000
    N276     N        0.04705    0.18759    0.31068    1.000
    N277     N        0.12251    0.19609    0.27908    1.000
    Si278    Si       0.13032    0.21349    0.33032    1.000
    Si279    Si       0.18724    0.20411    0.36092    1.000
    N280     N        0.20918    0.23764    0.34461    1.000
    N281     N        0.18266    0.21758    0.25419    1.000
    Si282    Si       0.23414    0.23611    0.30623    1.000
    Si283    Si       0.16727    0.18688    0.28086    1.000
    N284     N        0.24292    0.20087    0.28211    1.000
    N285     N        0.04740    0.22873    0.37331    1.000
    Si286    Si       0.99481    0.22193    0.44692    1.000
    N287     N        0.03304    0.20054    0.44120    1.000
    N288     N        0.08723    0.20789    0.48117    1.000
    N289     N        0.09881    0.22872    0.41620    1.000
    Si290    Si       0.04704    0.19419    0.39940    1.000
    Si291    Si       0.07969    0.24191    0.45249    1.000
    Si292    Si       0.11943    0.18691    0.39801    1.000
    N293     N        0.14609    0.21948    0.37393    1.000
    Si294    Si       0.22800    0.21535    0.41752    1.000
    N295     N        0.20161    0.20186    0.44939    1.000
    Si296    Si       0.19195    0.22927    0.48340    1.000
    Si297    Si       0.12845    0.18925    0.48117    1.000
    N298     N        0.05356    0.21152    0.57144    1.000
    Si299    Si       0.09202    0.19962    0.59173    1.000
    Si300    Si       0.02359    0.23799    0.59093    1.000
    N301     N        0.11185    0.23249    0.61507    1.000
    N302     N        0.12185    0.19590    0.55713    1.000
    Si303    Si       0.18437    0.20524    0.57928    1.000
    N304     N        0.22280    0.22206    0.59772    1.000
    Si305    Si       0.13333    0.23294    0.54077    1.000
    N306     N        0.22907    0.22438    0.50702    1.000
    N307     N        0.16834    0.18768    0.61738    1.000
    N308     N        0.15288    0.22066    0.50069    1.000
    N309     N        0.16630    0.24284    0.56785    1.000
    N310     N        0.99933    0.19651    0.66231    1.000
    N311     N        0.06847    0.19512    0.67464    1.000
    Si312    Si       0.09691    0.22027    0.69447    1.000
    Si313    Si       0.03637    0.22277    0.66649    1.000
    Si314    Si       0.00913    0.23011    0.73310    1.000
    N315     N        0.10747    0.22883    0.73532    1.000
    N316     N        0.04372    0.24280    0.62988    1.000
    N317     N        0.13431    0.20513    0.67917    1.000
    Si318    Si       0.20865    0.22716    0.70368    1.000
    N319     N        0.18562    0.19613    0.72820    1.000
    Si320    Si       0.14535    0.22083    0.63778    1.000
    N321     N        0.21846    0.20307    0.66720    1.000
    Si322    Si       0.05442    0.21797    0.79139    1.000
    N323     N        0.02015    0.22418    0.81870    1.000
    Si324    Si       0.01732    0.20080    0.85444    1.000
    N325     N        0.10191    0.23065    0.85862    1.000
    N326     N        0.03805    0.20642    0.75308    1.000
    Si327    Si       0.09065    0.19029    0.85006    1.000
    N328     N        0.07585    0.18499    0.80818    1.000
    Si329    Si       0.17177    0.19890    0.76952    1.000
    Si330    Si       0.20946    0.23228    0.80614    1.000
    N331     N        0.17551    0.24065    0.77884    1.000
    N332     N        0.19980    0.18878    0.80294    1.000
    N333     N        0.04261    0.22696    0.97331    1.000
    Si334    Si       0.00555    0.23841    0.99188    1.000
    N335     N        0.99513    0.21672    0.89086    1.000
    N336     N        0.09893    0.24557    0.93507    1.000
    N337     N        0.14351    0.20878    0.98554    1.000
    N338     N        0.21759    0.23874    0.90119    1.000
    N339     N        0.14567    0.20702    0.91120    1.000
    Si340    Si       0.11935    0.20836    0.94771    1.000
    Si341    Si       0.18620    0.21993    0.92350    1.000
    Si342    Si       0.12163    0.24187    0.89645    1.000
    Si343    Si       0.17390    0.23790    0.98864    1.000
    Si344    Si       0.22046    0.18306    0.98187    1.000
    N345     N        0.10164    0.26826    0.06615    1.000
    N346     N        0.04949    0.28417    0.11114    1.000
    Si347    Si       0.07348    0.25074    0.09457    1.000
    N348     N        0.99960    0.28031    0.00603    1.000
    N349     N        0.15916    0.26882    0.01541    1.000
    Si350    Si       0.20723    0.28006    0.09082    1.000
    Si351    Si       0.14401    0.25723    0.05567    1.000
    N352     N        0.16528    0.28697    0.07983    1.000
    N353     N        0.21707    0.24650    0.11914    1.000
    N354     N        0.07378    0.27335    0.18413    1.000
    Si355    Si       0.03169    0.26778    0.19743    1.000
    N356     N        0.00982    0.27134    0.23432    1.000
    N357     N        0.01657    0.29901    0.17182    1.000
    N358     N        0.18176    0.28138    0.23492    1.000
    Si359    Si       0.21963    0.25653    0.16013    1.000
    Si360    Si       0.16509    0.28806    0.19482    1.000
    N361     N        0.14284    0.25341    0.17861    1.000
    N362     N        0.20003    0.29358    0.16966    1.000
    N363     N        0.02400    0.25827    0.31472    1.000
    Si364    Si       0.01558    0.29530    0.33975    1.000
    Si365    Si       0.02506    0.25234    0.27175    1.000
    N366     N        0.10639    0.28302    0.36870    1.000
    Si367    Si       0.12031    0.28002    0.32582    1.000
    N368     N        0.12511    0.26765    0.25914    1.000
    N369     N        0.21124    0.26945    0.28961    1.000
    Si370    Si       0.18904    0.27647    0.32833    1.000
    Si371    Si       0.16685    0.25737    0.26887    1.000
    N372     N        0.15382    0.24901    0.31346    1.000
    Si373    Si       0.22221    0.28310    0.24977    1.000
    N374     N        0.22002    0.30132    0.35527    1.000
    Si375    Si       0.24002    0.26236    0.36790    1.000
    N376     N        0.03811    0.29785    0.37567    1.000
    N377     N        0.10060    0.27841    0.47209    1.000
    N378     N        0.04470    0.26384    0.43998    1.000
    Si379    Si       0.03267    0.25991    0.39882    1.000
    Si380    Si       0.01764    0.28622    0.46592    1.000
    N381     N        0.21676    0.25515    0.40605    1.000
    N382     N        0.19817    0.27133    0.46823    1.000
    Si383    Si       0.19248    0.28460    0.42688    1.000
    N384     N        0.14798    0.27903    0.42269    1.000
    Si385    Si       0.12510    0.25449    0.39340    1.000
    Si386    Si       0.11961    0.30277    0.44207    1.000
    N387     N        0.01450    0.27604    0.57138    1.000
    Si388    Si       0.00403    0.27782    0.52895    1.000
    N389     N        0.10029    0.26035    0.53853    1.000
    Si390    Si       0.08088    0.28612    0.51035    1.000
    N391     N        0.03926    0.28519    0.50516    1.000
    Si392    Si       0.17165    0.28782    0.56750    1.000
    N393     N        0.20848    0.29377    0.59185    1.000
    Si394    Si       0.21160    0.25833    0.61882    1.000
    N395     N        0.08105    0.30381    0.62442    1.000
    Si396    Si       0.99738    0.28238    0.67349    1.000
    N397     N        0.07427    0.28694    0.73363    1.000
    Si398    Si       0.08412    0.26194    0.63295    1.000
    N399     N        0.08493    0.25785    0.67601    1.000
    N400     N        0.01756    0.24898    0.69496    1.000
    Si401    Si       0.08798    0.29717    0.69393    1.000
    N402     N        0.12964    0.30095    0.68248    1.000
    N403     N        0.18274    0.26195    0.71034    1.000
    N404     N        0.17467    0.25402    0.64137    1.000
    Si405    Si       0.16766    0.28070    0.67427    1.000
    Si406    Si       0.10123    0.26733    0.83441    1.000
    N407     N        0.07207    0.29344    0.85398    1.000
    Si408    Si       0.09993    0.26411    0.75723    1.000
    N409     N        0.08238    0.25283    0.79626    1.000
    Si410    Si       0.16883    0.29008    0.85138    1.000
    N411     N        0.13445    0.28875    0.75773    1.000
    N412     N        0.19686    0.26033    0.83845    1.000
    N413     N        0.13460    0.29278    0.82444    1.000
    Si414    Si       0.17450    0.27417    0.75084    1.000
    Si415    Si       0.23127    0.24662    0.86194    1.000
    N416     N        0.20076    0.30429    0.76777    1.000
    N417     N        0.06231    0.29202    0.97997    1.000
    N418     N        0.03246    0.26890    0.91734    1.000
    Si419    Si       0.06002    0.25880    0.95065    1.000
    Si420    Si       0.05169    0.29995    0.89294    1.000
    Si421    Si       0.99263    0.25083    0.91773    1.000
    N422     N        0.13575    0.30420    0.96212    1.000
    Si423    Si       0.21558    0.27707    0.92589    1.000
    N424     N        0.14743    0.27528    0.88906    1.000
    N425     N        0.18265    0.25578    0.94904    1.000
    N426     N        0.23755    0.29166    0.99394    1.000
    Si427    Si       0.03075    0.31714    0.08658    1.000
    N428     N        0.05154    0.31333    0.04785    1.000
    Si429    Si       0.09280    0.31123    0.05657    1.000
    N430     N        0.99213    0.33386    0.07528    1.000
    Si431    Si       0.03436    0.30923    0.00794    1.000
    N432     N        0.11142    0.33392    0.09023    1.000
    N433     N        0.03604    0.34321    0.12269    1.000
    N434     N        0.11806    0.32664    0.02425    1.000
    N435     N        0.21472    0.32117    0.10511    1.000
    Si436    Si       0.15736    0.32869    0.09239    1.000
    Si437    Si       0.22703    0.33597    0.00343    1.000
    Si438    Si       0.15188    0.30898    0.00189    1.000
    N439     N        0.18404    0.33612    0.00099    1.000
    Si440    Si       0.09570    0.31028    0.19696    1.000
    N441     N        0.08442    0.33143    0.16290    1.000
    Si442    Si       0.05018    0.30902    0.14617    1.000
    N443     N        0.07672    0.31587    0.23579    1.000
    N444     N        0.01276    0.36093    0.24652    1.000
    Si445    Si       0.11377    0.34612    0.13266    1.000
    Si446    Si       0.19538    0.32845    0.14471    1.000
    Si447    Si       0.15434    0.35764    0.22363    1.000
    N448     N        0.13831    0.31972    0.20407    1.000
    N449     N        0.15363    0.32996    0.13446    1.000
    Si450    Si       0.06847    0.33524    0.31683    1.000
    N451     N        0.08099    0.34820    0.35600    1.000
    N452     N        0.02362    0.32737    0.31269    1.000
    Si453    Si       0.11101    0.30895    0.26342    1.000
    N454     N        0.09532    0.30572    0.30354    1.000
    Si455    Si       0.05528    0.35366    0.25086    1.000
    Si456    Si       0.16992    0.35221    0.32546    1.000
    N457     N        0.15913    0.31002    0.32569    1.000
    N458     N        0.13040    0.34918    0.26070    1.000
    Si459    Si       0.22127    0.35809    0.25966    1.000
    Si460    Si       0.07827    0.31354    0.38133    1.000
    N461     N        0.00652    0.32865    0.45536    1.000
    N462     N        0.08755    0.32394    0.42111    1.000
    N463     N        0.13708    0.34019    0.46079    1.000
    N464     N        0.20155    0.34002    0.48248    1.000
    Si465    Si       0.17859    0.34916    0.44509    1.000
    N466     N        0.19964    0.32482    0.41559    1.000
    Si467    Si       0.22226    0.33736    0.37940    1.000
    N468     N        0.09762    0.32806    0.51627    1.000
    N469     N        0.00080    0.34628    0.57832    1.000
    Si470    Si       0.11117    0.33079    0.60963    1.000
    N471     N        0.09628    0.35827    0.57881    1.000
    Si472    Si       0.98992    0.30656    0.59391    1.000
    Si473    Si       0.12294    0.34137    0.54942    1.000
    N474     N        0.14126    0.31422    0.58074    1.000
    N475     N        0.17403    0.29571    0.52638    1.000
    Si476    Si       0.20567    0.30050    0.49944    1.000
    Si477    Si       0.04555    0.32507    0.64051    1.000
    Si478    Si       0.01870    0.33906    0.70731    1.000
    N479     N        0.05112    0.32196    0.68190    1.000
    N480     N        0.09864    0.34403    0.71978    1.000
    N481     N        0.00657    0.30447    0.63495    1.000
    N482     N        0.04964    0.36332    0.62279    1.000
    Si483    Si       0.15106    0.34243    0.67503    1.000
    N484     N        0.13042    0.35885    0.64010    1.000
    N485     N        0.22504    0.35302    0.72876    1.000
    N486     N        0.18815    0.32043    0.67428    1.000
    Si487    Si       0.22273    0.34286    0.68648    1.000
    N488     N        0.08940    0.32769    0.79038    1.000
    N489     N        0.02901    0.33690    0.81767    1.000
    Si490    Si       0.07098    0.32956    0.83025    1.000
    Si491    Si       0.00194    0.34381    0.85030    1.000
    N492     N        0.08747    0.35755    0.85753    1.000
    Si493    Si       0.07346    0.32628    0.75074    1.000
    N494     N        0.03233    0.34092    0.74712    1.000
    Si495    Si       0.02324    0.36163    0.78468    1.000
    Si496    Si       0.22143    0.34285    0.83280    1.000
    Si497    Si       0.19612    0.34754    0.76346    1.000
    N498     N        0.18685    0.33137    0.85559    1.000
    Si499    Si       0.13194    0.31920    0.79023    1.000
    N500     N        0.15379    0.35342    0.77507    1.000
    Si501    Si       0.09716    0.35449    0.90159    1.000
    N502     N        0.08301    0.31629    0.91884    1.000
    Si503    Si       0.09350    0.31627    0.96259    1.000
    N504     N        0.02119    0.33123    0.88823    1.000
    N505     N        0.09335    0.35834    0.97241    1.000
    N506     N        0.01710    0.34663    0.99444    1.000
    N507     N        0.19473    0.31337    0.91630    1.000
    N508     N        0.13935    0.34365    0.90431    1.000
    Si509    Si       0.18209    0.35121    0.89745    1.000
    Si510    Si       0.15052    0.30229    0.92196    1.000
    N511     N        0.01466    0.39588    0.04641    1.000
    N512     N        0.07834    0.37840    0.03395    1.000
    Si513    Si       0.03906    0.37884    0.01313    1.000
    Si514    Si       0.09241    0.41338    0.05535    1.000
    N515     N        0.06513    0.41359    0.09084    1.000
    Si516    Si       0.11092    0.36504    0.01114    1.000
    N517     N        0.99609    0.40123    0.10893    1.000
    Si518    Si       0.20646    0.38752    0.10925    1.000
    Si519    Si       0.16304    0.39846    0.05466    1.000
    N520     N        0.13948    0.39861    0.01617    1.000
    N521     N        0.17336    0.36949    0.08484    1.000
    N522     N        0.20108    0.41784    0.05117    1.000
    Si523    Si       0.10107    0.40806    0.22185    1.000
    Si524    Si       0.01834    0.37981    0.14031    1.000
    N525     N        0.06806    0.38087    0.21891    1.000
    N526     N        0.04729    0.41083    0.15202    1.000
    Si527    Si       0.02425    0.38510    0.21169    1.000
    N528     N        0.00037    0.36596    0.18023    1.000
    N529     N        0.11495    0.38900    0.13829    1.000
    Si530    Si       0.08445    0.41771    0.12876    1.000
    N531     N        0.14249    0.39897    0.21756    1.000
    Si532    Si       0.21644    0.38743    0.19018    1.000
    N533     N        0.20850    0.36845    0.15173    1.000
    N534     N        0.19801    0.36362    0.22253    1.000
    Si535    Si       0.10769    0.38422    0.36034    1.000
    N536     N        0.01203    0.41394    0.36251    1.000
    N537     N        0.10317    0.42043    0.26496    1.000
    N538     N        0.08156    0.41942    0.35881    1.000
    N539     N        0.07328    0.36664    0.28847    1.000
    Si540    Si       0.11295    0.38329    0.28430    1.000
    Si541    Si       0.21091    0.41098    0.29056    1.000
    N542     N        0.13246    0.37773    0.32386    1.000
    Si543    Si       0.20643    0.41160    0.36573    1.000
    N544     N        0.19196    0.36904    0.29077    1.000
    N545     N        0.19652    0.36665    0.35668    1.000
    N546     N        0.04882    0.37805    0.40818    1.000
    N547     N        0.01421    0.40527    0.45578    1.000
    N548     N        0.08509    0.38107    0.46640    1.000
    Si549    Si       0.05100    0.41673    0.38836    1.000
    Si550    Si       0.08792    0.36720    0.42583    1.000
    Si551    Si       0.01585    0.36420    0.43213    1.000
    Si552    Si       0.11275    0.36051    0.49075    1.000
    Si553    Si       0.21551    0.41238    0.43981    1.000
    N554     N        0.11840    0.38555    0.40185    1.000
    N555     N        0.23345    0.41174    0.40145    1.000
    Si556    Si       0.15044    0.41361    0.41321    1.000
    N557     N        0.17853    0.39157    0.43698    1.000
    Si558    Si       0.07294    0.38937    0.59572    1.000
    N559     N        0.03901    0.40859    0.57527    1.000
    Si560    Si       0.01400    0.38031    0.60148    1.000
    N561     N        0.09931    0.41744    0.61406    1.000
    Si562    Si       0.00243    0.41183    0.49839    1.000
    N563     N        0.13498    0.37736    0.52484    1.000
    N564     N        0.21217    0.39513    0.59829    1.000
    N565     N        0.19977    0.40223    0.52738    1.000
    Si566    Si       0.15813    0.41326    0.53549    1.000
    Si567    Si       0.22992    0.39485    0.55968    1.000
    Si568    Si       0.22004    0.37193    0.50185    1.000
    Si569    Si       0.99698    0.40680    0.66532    1.000
    N570     N        0.00226    0.37877    0.69836    1.000
    N571     N        0.10044    0.40568    0.68218    1.000
    Si572    Si       0.12567    0.40154    0.64508    1.000
    Si573    Si       0.18627    0.40573    0.68320    1.000
    N574     N        0.15566    0.37843    0.69856    1.000
    Si575    Si       0.11592    0.38258    0.71521    1.000
    N576     N        0.16512    0.41997    0.64706    1.000
    N577     N        0.21916    0.38149    0.66774    1.000
    N578     N        0.04962    0.39641    0.78814    1.000
    Si579    Si       0.09545    0.39904    0.84905    1.000
    N580     N        0.00070    0.38729    0.86381    1.000
    N581     N        0.11579    0.40744    0.75037    1.000
    Si582    Si       0.14476    0.39531    0.78200    1.000
    N583     N        0.12759    0.40583    0.81994    1.000
    Si584    Si       0.20855    0.40957    0.80355    1.000
    N585     N        0.19101    0.41082    0.84448    1.000
    N586     N        0.21279    0.36633    0.79794    1.000
    Si587    Si       0.22213    0.40137    0.87414    1.000
    N588     N        0.11278    0.42133    0.95713    1.000
    N589     N        0.06305    0.38314    0.91563    1.000
    Si590    Si       0.02118    0.37378    0.90043    1.000
    N591     N        0.04630    0.40697    0.97974    1.000
    Si592    Si       0.07724    0.39440    0.95546    1.000
    N593     N        0.99029    0.37463    0.93084    1.000
    N594     N        0.12257    0.41156    0.88131    1.000
    N595     N        0.19583    0.39208    0.90834    1.000
    N596     N        0.07496    0.44582    0.03178    1.000
    N597     N        0.00790    0.45952    0.08378    1.000
    N598     N        0.01329    0.46275    0.00921    1.000
    Si599    Si       0.02678    0.42052    0.07767    1.000
    Si600    Si       0.04917    0.44592    0.99611    1.000
    Si601    Si       0.12492    0.46439    0.09214    1.000
    Si602    Si       0.20036    0.45533    0.07959    1.000
    N603     N        0.20389    0.43066    0.11766    1.000
    Si604    Si       0.20928    0.44082    0.00942    1.000
    N605     N        0.13165    0.42623    0.07384    1.000
    N606     N        0.13128    0.47214    0.00721    1.000
    N607     N        0.23756    0.47710    0.07606    1.000
    N608     N        0.18923    0.47677    0.03504    1.000
    N609     N        0.23943    0.47285    0.00173    1.000
    N610     N        0.09783    0.45930    0.12655    1.000
    N611     N        0.08518    0.44262    0.20008    1.000
    Si612    Si       0.04582    0.44083    0.18343    1.000
    N613     N        0.01431    0.42807    0.21216    1.000
    Si614    Si       0.10579    0.47567    0.21619    1.000
    Si615    Si       0.20809    0.45018    0.15521    1.000
    Si616    Si       0.17017    0.43081    0.22322    1.000
    N617     N        0.14907    0.47095    0.22136    1.000
    N618     N        0.19809    0.42662    0.18993    1.000
    Si619    Si       0.08660    0.45451    0.28314    1.000
    N620     N        0.04841    0.44767    0.30260    1.000
    Si621    Si       0.09473    0.46098    0.35392    1.000
    N622     N        0.99668    0.46846    0.32976    1.000
    Si623    Si       0.01286    0.42824    0.31922    1.000
    N624     N        0.11028    0.47149    0.31450    1.000
    N625     N        0.19911    0.43803    0.25972    1.000
    Si626    Si       0.22911    0.47360    0.25659    1.000
    N627     N        0.22356    0.42912    0.32907    1.000
    N628     N        0.06847    0.43768    0.42411    1.000
    Si629    Si       0.09962    0.46639    0.43083    1.000
    N630     N        0.08729    0.46460    0.48046    1.000
    Si631    Si       0.05906    0.41971    0.46525    1.000
    N632     N        0.11978    0.47477    0.38637    1.000
    N633     N        0.14004    0.44912    0.44082    1.000
    Si634    Si       0.16387    0.47697    0.37696    1.000
    Si635    Si       0.16759    0.45895    0.47159    1.000
    N636     N        0.20822    0.45149    0.45757    1.000
    N637     N        0.17346    0.43472    0.38187    1.000
    N638     N        0.09474    0.44508    0.54832    1.000
    Si639    Si       0.05156    0.43813    0.54478    1.000
    N640     N        0.03322    0.47798    0.54573    1.000
    Si641    Si       0.11302    0.46685    0.51595    1.000
    N642     N        0.04333    0.42358    0.50658    1.000
    Si643    Si       0.11573    0.44738    0.58504    1.000
    N644     N        0.15663    0.43189    0.57658    1.000
    N645     N        0.14909    0.44378    0.50803    1.000
    Si646    Si       0.18672    0.42877    0.60888    1.000
    N647     N        0.21699    0.46003    0.61412    1.000
    N648     N        0.03183    0.43048    0.65451    1.000
    N649     N        0.05828    0.44758    0.71735    1.000
    Si650    Si       0.06805    0.43484    0.67566    1.000
    Si651    Si       0.01739    0.46885    0.63921    1.000
    N652     N        0.09101    0.47207    0.66580    1.000
    Si653    Si       0.23492    0.45254    0.72230    1.000
    Si654    Si       0.16801    0.45508    0.74228    1.000
    N655     N        0.19438    0.43747    0.71044    1.000
    N656     N        0.12677    0.46583    0.72793    1.000
    N657     N        0.08271    0.45939    0.78413    1.000
    N658     N        0.01402    0.45525    0.80690    1.000
    N659     N        0.06735    0.43165    0.84724    1.000
    Si660    Si       0.05288    0.43701    0.80584    1.000
    Si661    Si       0.06182    0.46895    0.87030    1.000
    Si662    Si       0.09253    0.44257    0.74616    1.000
    N663     N        0.15599    0.46949    0.85367    1.000
    Si664    Si       0.15091    0.42587    0.85143    1.000
    N665     N        0.17659    0.42415    0.77673    1.000
    N666     N        0.07935    0.46193    0.90896    1.000
    N667     N        0.07338    0.47720    0.97663    1.000
    Si668    Si       0.99131    0.46915    0.97241    1.000
    N669     N        0.02210    0.48517    0.87153    1.000
    Si670    Si       0.19088    0.42828    0.93600    1.000
    N671     N        0.15742    0.45373    0.91922    1.000
    Si672    Si       0.11656    0.43960    0.91709    1.000
    Si673    Si       0.13947    0.43452    0.98839    1.000
    N674     N        0.18039    0.43338    0.97755    1.000
    N675     N        0.22615    0.45304    0.93284    1.000
    N676     N        0.04173    0.51107    0.05005    1.000
    Si677    Si       0.07626    0.51906    0.07666    1.000
    Si678    Si       0.09065    0.48455    0.01773    1.000
    N679     N        0.08659    0.53078    0.01012    1.000
    Si680    Si       0.00950    0.48183    0.04753    1.000
    N681     N        0.10891    0.49403    0.06360    1.000
    N682     N        0.06068    0.51605    0.11719    1.000
    Si683    Si       0.15016    0.49643    0.03822    1.000
    Si684    Si       0.22928    0.49687    0.03595    1.000
    N685     N        0.22213    0.53843    0.03529    1.000
    N686     N        0.15286    0.53938    0.02714    1.000
    N687     N        0.16695    0.48273    0.09382    1.000
    N688     N        0.03922    0.52767    0.22565    1.000
    N689     N        0.10200    0.50301    0.18309    1.000
    Si690    Si       0.01644    0.51350    0.19147    1.000
    Si691    Si       0.07636    0.49047    0.14916    1.000
    N692     N        0.03963    0.48175    0.17079    1.000
    Si693    Si       0.17032    0.50565    0.23295    1.000
    N694     N        0.14109    0.53158    0.13421    1.000
    Si695    Si       0.17671    0.51343    0.12252    1.000
    N696     N        0.21254    0.49813    0.22555    1.000
    N697     N        0.19204    0.49246    0.15752    1.000
    Si698    Si       0.22770    0.49909    0.18490    1.000
    N699     N        0.04315    0.51935    0.30202    1.000
    Si700    Si       0.06128    0.52185    0.26254    1.000
    Si701    Si       0.03850    0.48402    0.32399    1.000
    N702     N        0.08663    0.48695    0.25424    1.000
    N703     N        0.05741    0.48253    0.36339    1.000
    Si704    Si       0.13949    0.50529    0.31209    1.000
    N705     N        0.15331    0.51882    0.27314    1.000
    Si706    Si       0.21195    0.51367    0.32753    1.000
    N707     N        0.17256    0.49562    0.33714    1.000
    N708     N        0.23157    0.48960    0.29627    1.000
    Si709    Si       0.05238    0.50847    0.39692    1.000
    Si710    Si       0.06127    0.49933    0.47253    1.000
    N711     N        0.01122    0.51101    0.40888    1.000
    N712     N        0.08103    0.50724    0.43391    1.000
    Si713    Si       0.99033    0.48243    0.43559    1.000
    N714     N        0.01968    0.48049    0.46947    1.000
    N715     N        0.18182    0.51068    0.40062    1.000
    Si716    Si       0.19765    0.51305    0.44134    1.000
    N717     N        0.17000    0.50336    0.47315    1.000
    Si718    Si       0.04009    0.50781    0.57604    1.000
    N719     N        0.99931    0.52693    0.58615    1.000
    N720     N        0.05741    0.52940    0.50296    1.000
    N721     N        0.04658    0.48993    0.61490    1.000
    N722     N        0.07198    0.53716    0.57135    1.000
    Si723    Si       0.11413    0.52337    0.56745    1.000
    Si724    Si       0.00641    0.48089    0.51036    1.000
    N725     N        0.11528    0.48977    0.59666    1.000
    N726     N        0.20451    0.53121    0.60579    1.000
    N727     N        0.12666    0.50720    0.52805    1.000
    Si728    Si       0.16065    0.52827    0.50747    1.000
    N729     N        0.19749    0.52928    0.53572    1.000
    Si730    Si       0.23224    0.50152    0.61373    1.000
    Si731    Si       0.03804    0.48873    0.71197    1.000
    Si732    Si       0.08574    0.49763    0.62946    1.000
    N733     N        0.07305    0.51642    0.71566    1.000
    N734     N        0.01257    0.49455    0.67675    1.000
    Si735    Si       0.10830    0.49215    0.69869    1.000
    N736     N        0.18526    0.49493    0.74274    1.000
    N737     N        0.20480    0.52953    0.68108    1.000
    N738     N        0.13743    0.52249    0.69126    1.000
    Si739    Si       0.17495    0.52455    0.71084    1.000
    N740     N        0.08085    0.49974    0.84571    1.000
    N741     N        0.01767    0.52422    0.81428    1.000
    Si742    Si       0.03380    0.52074    0.77405    1.000
    N743     N        0.07527    0.52576    0.78824    1.000
    Si744    Si       0.09773    0.49159    0.80499    1.000
    Si745    Si       0.00240    0.49054    0.83364    1.000
    Si746    Si       0.06503    0.53835    0.83044    1.000
    N747     N        0.01427    0.49486    0.74663    1.000
    Si748    Si       0.21747    0.50307    0.77192    1.000
    N749     N        0.13509    0.51104    0.79760    1.000
    Si750    Si       0.16528    0.50180    0.82596    1.000
    N751     N        0.20783    0.49245    0.81278    1.000
    Si752    Si       0.22142    0.51295    0.84997    1.000
    N753     N        0.18140    0.53464    0.84621    1.000
    Si754    Si       0.05889    0.48736    0.93718    1.000
    N755     N        0.07040    0.52882    0.92982    1.000
    N756     N        0.01490    0.48091    0.93941    1.000
    Si757    Si       0.16627    0.48713    0.89346    1.000
    N758     N        0.20824    0.50138    0.89018    1.000
    Si759    Si       0.22083    0.53266    0.91595    1.000
    N760     N        0.13834    0.52205    0.89675    1.000
    N761     N        0.09515    0.55949    0.08157    1.000
    N762     N        0.03614    0.57961    0.10600    1.000
    N763     N        0.05627    0.58561    0.03075    1.000
    Si764    Si       0.06363    0.58897    0.07396    1.000
    Si765    Si       0.04339    0.54439    0.02080    1.000
    N766     N        0.00027    0.56227    0.04262    1.000
    Si767    Si       0.11752    0.56566    0.12020    1.000
    Si768    Si       0.18952    0.56508    0.02285    1.000
    Si769    Si       0.22377    0.56209    0.07358    1.000
    N770     N        0.20133    0.59588    0.05342    1.000
    Si771    Si       0.12010    0.55619    0.00302    1.000
    N772     N        0.20124    0.54271    0.10408    1.000
    N773     N        0.11764    0.59940    0.00746    1.000
    Si774    Si       0.02447    0.54048    0.12446    1.000
    Si775    Si       0.01457    0.59178    0.18560    1.000
    N776     N        0.01560    0.55197    0.16654    1.000
    N777     N        0.09839    0.56900    0.16055    1.000
    N778     N        0.18708    0.57992    0.17404    1.000
    Si779    Si       0.12562    0.53706    0.17577    1.000
    N780     N        0.20590    0.57575    0.23164    1.000
    N781     N        0.14764    0.54141    0.21432    1.000
    Si782    Si       0.22478    0.57096    0.19192    1.000
    Si783    Si       0.16698    0.58319    0.21422    1.000
    N784     N        0.05269    0.58327    0.32904    1.000
    Si785    Si       0.01962    0.55526    0.31399    1.000
    Si786    Si       0.09264    0.56921    0.30943    1.000
    N787     N        0.09031    0.55395    0.26743    1.000
    N788     N        0.99531    0.56992    0.28220    1.000
    Si789    Si       0.05320    0.58373    0.37253    1.000
    N790     N        0.98883    0.54091    0.33973    1.000
    N791     N        0.21631    0.55693    0.32077    1.000
    Si792    Si       0.13087    0.55125    0.25487    1.000
    N793     N        0.14831    0.59144    0.25449    1.000
    N794     N        0.11993    0.54197    0.32757    1.000
    Si795    Si       0.19677    0.59424    0.33741    1.000
    Si796    Si       0.09585    0.54776    0.42307    1.000
    N797     N        0.08872    0.57980    0.45266    1.000
    N798     N        0.01336    0.58325    0.39122    1.000
    N799     N        0.06784    0.54810    0.38909    1.000
    Si800    Si       0.99332    0.55045    0.41330    1.000
    N801     N        0.99688    0.55664    0.45505    1.000
    Si802    Si       0.11020    0.58763    0.48907    1.000
    Si803    Si       0.17426    0.55531    0.39974    1.000
    Si804    Si       0.18282    0.58868    0.46774    1.000
    N805     N        0.18878    0.58903    0.37834    1.000
    N806     N        0.15019    0.56704    0.48953    1.000
    N807     N        0.13351    0.56068    0.40985    1.000
    N808     N        0.19855    0.55842    0.43961    1.000
    N809     N        0.02237    0.57973    0.54985    1.000
    Si810    Si       0.05744    0.55897    0.53354    1.000
    Si811    Si       0.00662    0.56976    0.59183    1.000
    N812     N        0.09084    0.58526    0.52663    1.000
    Si813    Si       0.07633    0.56610    0.60693    1.000
    N814     N        0.03909    0.58406    0.61810    1.000
    Si815    Si       0.11825    0.59365    0.55918    1.000
    N816     N        0.14240    0.55777    0.56668    1.000
    Si817    Si       0.18428    0.55121    0.57361    1.000
    N818     N        0.20202    0.59148    0.57290    1.000
    N819     N        0.05561    0.58576    0.69520    1.000
    Si820    Si       0.06925    0.55974    0.72890    1.000
    Si821    Si       0.00976    0.59126    0.69736    1.000
    N822     N        0.09359    0.54185    0.63735    1.000
    Si823    Si       0.14026    0.58844    0.72980    1.000
    N824     N        0.12275    0.59481    0.68891    1.000
    Si825    Si       0.12723    0.55528    0.66358    1.000
    N826     N        0.22957    0.58769    0.63953    1.000
    N827     N        0.16122    0.57207    0.64316    1.000
    N828     N        0.17526    0.56242    0.73123    1.000
    Si829    Si       0.20169    0.55412    0.64455    1.000
    N830     N        0.04161    0.56994    0.84854    1.000
    N831     N        0.10269    0.56320    0.82974    1.000
    Si832    Si       0.00099    0.56126    0.83267    1.000
    N833     N        0.03092    0.55884    0.75152    1.000
    Si834    Si       0.10997    0.59098    0.86195    1.000
    N835     N        0.10572    0.57103    0.75050    1.000
    Si836    Si       0.01645    0.59474    0.76965    1.000
    Si837    Si       0.11825    0.55539    0.78957    1.000
    Si838    Si       0.19592    0.57235    0.76865    1.000
    N839     N        0.15751    0.57913    0.78911    1.000
    N840     N        0.22785    0.54582    0.77852    1.000
    N841     N        0.15255    0.59194    0.86733    1.000
    N842     N        0.10241    0.58109    0.90525    1.000
    N843     N        0.02619    0.54877    0.98073    1.000
    N844     N        0.01257    0.58287    0.92811    1.000
    Si845    Si       0.04873    0.56539    0.94548    1.000
    Si846    Si       0.99557    0.57692    0.96688    1.000
    Si847    Si       0.11129    0.54215    0.92358    1.000
    N848     N        0.07203    0.59961    0.96144    1.000
    N849     N        0.13116    0.55291    0.96076    1.000
    N850     N        0.18672    0.55980    0.91726    1.000
    Si851    Si       0.16422    0.55233    0.88145    1.000
    N852     N        0.19462    0.58354    0.98265    1.000
    Si853    Si       0.16544    0.57643    0.95086    1.000
    N854     N        0.07907    0.62877    0.07990    1.000
    N855     N        0.01265    0.62715    0.07073    1.000
    N856     N        0.04301    0.64560    0.01624    1.000
    Si857    Si       0.00605    0.61002    0.11161    1.000
    Si858    Si       0.01501    0.60472    0.03195    1.000
    Si859    Si       0.10886    0.63640    0.10974    1.000
    Si860    Si       0.07674    0.61863    0.00175    1.000
    Si861    Si       0.18960    0.63795    0.04196    1.000
    N862     N        0.21891    0.64329    0.00589    1.000
    N863     N        0.13919    0.60140    0.11784    1.000
    N864     N        0.14921    0.65454    0.03192    1.000
    Si865    Si       0.05380    0.63832    0.22776    1.000
    N866     N        0.09470    0.64120    0.14987    1.000
    N867     N        0.00434    0.62200    0.15333    1.000
    Si868    Si       0.09324    0.60854    0.17917    1.000
    N869     N        0.05361    0.60558    0.19836    1.000
    N870     N        0.09178    0.65659    0.21272    1.000
    N871     N        0.13521    0.61082    0.19255    1.000
    N872     N        0.18115    0.64434    0.14347    1.000
    N873     N        0.18450    0.64776    0.20785    1.000
    Si874    Si       0.13771    0.64810    0.21373    1.000
    Si875    Si       0.16083    0.60792    0.15575    1.000
    Si876    Si       0.06148    0.62238    0.30590    1.000
    N877     N        0.04411    0.62132    0.26676    1.000
    Si878    Si       0.00239    0.60792    0.26064    1.000
    N879     N        0.10323    0.61120    0.30277    1.000
    N880     N        0.05756    0.65657    0.32895    1.000
    N881     N        0.23846    0.61755    0.33009    1.000
    N882     N        0.17136    0.62576    0.31558    1.000
    Si883    Si       0.14160    0.62226    0.28395    1.000
    N884     N        0.21938    0.63624    0.26170    1.000
    Si885    Si       0.23268    0.64998    0.30110    1.000
    Si886    Si       0.23766    0.59988    0.24891    1.000
    Si887    Si       0.06256    0.65681    0.37200    1.000
    Si888    Si       0.02657    0.62229    0.41399    1.000
    Si889    Si       0.08664    0.61935    0.43668    1.000
    N890     N        0.04791    0.63670    0.45068    1.000
    N891     N        0.06741    0.61792    0.39346    1.000
    N892     N        0.11439    0.63073    0.48319    1.000
    Si893    Si       0.18432    0.62821    0.40053    1.000
    Si894    Si       0.14486    0.65608    0.45625    1.000
    N895     N        0.17558    0.62441    0.44554    1.000
    Si896    Si       0.19708    0.65441    0.49803    1.000
    N897     N        0.11746    0.64587    0.42324    1.000
    N898     N        0.22641    0.64007    0.39958    1.000
    Si899    Si       0.00536    0.61856    0.53542    1.000
    N900     N        0.03693    0.64476    0.51925    1.000
    N901     N        0.09953    0.60332    0.59827    1.000
    Si902    Si       0.10235    0.64153    0.62096    1.000
    Si903    Si       0.18505    0.61478    0.54292    1.000
    N904     N        0.14290    0.62423    0.54434    1.000
    Si905    Si       0.23304    0.60665    0.60039    1.000
    Si906    Si       0.12486    0.65271    0.51936    1.000
    N907     N        0.20237    0.60644    0.50278    1.000
    N908     N        0.23876    0.64967    0.59759    1.000
    N909     N        0.20133    0.65470    0.54165    1.000
    N910     N        0.08624    0.63961    0.72693    1.000
    N911     N        0.00088    0.61362    0.73415    1.000
    Si912    Si       0.03576    0.62573    0.63490    1.000
    Si913    Si       0.08415    0.61650    0.68991    1.000
    N914     N        0.07299    0.63739    0.65314    1.000
    N915     N        0.00716    0.62630    0.66866    1.000
    Si916    Si       0.23217    0.61524    0.67564    1.000
    Si917    Si       0.15478    0.61176    0.66139    1.000
    N918     N        0.19052    0.62218    0.68135    1.000
    Si919    Si       0.18287    0.64867    0.71441    1.000
    N920     N        0.16011    0.62683    0.74297    1.000
    N921     N        0.14094    0.64802    0.64496    1.000
    N922     N        0.04998    0.61098    0.79308    1.000
    Si923    Si       0.04681    0.61194    0.83871    1.000
    N924     N        0.08547    0.62675    0.85398    1.000
    Si925    Si       0.07815    0.63467    0.77168    1.000
    N926     N        0.01452    0.62685    0.86277    1.000
    N927     N        0.11578    0.63587    0.79135    1.000
    Si928    Si       0.15744    0.62510    0.78722    1.000
    N929     N        0.21351    0.61150    0.77930    1.000
    Si930    Si       0.18453    0.61837    0.86096    1.000
    N931     N        0.17267    0.64318    0.82499    1.000
    N932     N        0.22330    0.60014    0.85061    1.000
    Si933    Si       0.23826    0.62078    0.81448    1.000
    Si934    Si       0.24011    0.62898    0.74883    1.000
    Si935    Si       0.10424    0.61343    0.93516    1.000
    N936     N        0.09631    0.65051    0.91487    1.000
    N937     N        0.09982    0.65524    0.98108    1.000
    Si938    Si       0.99392    0.59972    0.89159    1.000
    N939     N        0.99153    0.60776    0.99548    1.000
    Si940    Si       0.13687    0.63759    0.99359    1.000
    N941     N        0.17212    0.65125    0.88700    1.000
    N942     N        0.14685    0.62003    0.95134    1.000
    N943     N        0.21792    0.63604    0.93694    1.000
    Si944    Si       0.22561    0.61296    0.97378    1.000
    Si945    Si       0.17468    0.64900    0.92974    1.000
    N946     N        0.08146    0.68903    0.05631    1.000
    N947     N        0.01924    0.68967    0.07263    1.000
    Si948    Si       0.00804    0.70651    0.11502    1.000
    Si949    Si       0.05101    0.65815    0.05886    1.000
    N950     N        0.03897    0.71330    0.00948    1.000
    Si951    Si       0.12639    0.68382    0.05731    1.000
    Si952    Si       0.22370    0.69551    0.05615    1.000
    N953     N        0.13494    0.66835    0.09764    1.000
    Si954    Si       0.17624    0.67006    0.11061    1.000
    N955     N        0.20197    0.66290    0.07576    1.000
    N956     N        0.20280    0.70761    0.01974    1.000
    Si957    Si       0.10127    0.68072    0.17497    1.000
    N958     N        0.01543    0.69467    0.15713    1.000
    N959     N        0.01715    0.66157    0.21828    1.000
    Si960    Si       0.00167    0.66003    0.17740    1.000
    Si961    Si       0.00771    0.69604    0.24438    1.000
    N962     N        0.14310    0.68727    0.18906    1.000
    Si963    Si       0.21609    0.66754    0.22752    1.000
    N964     N        0.18582    0.70866    0.13284    1.000
    N965     N        0.22347    0.69375    0.18203    1.000
    Si966    Si       0.18452    0.67773    0.17296    1.000
    N967     N        0.19367    0.70847    0.23815    1.000
    N968     N        0.00859    0.69912    0.28861    1.000
    Si969    Si       0.04570    0.69663    0.31014    1.000
    N970     N        0.07836    0.70180    0.28183    1.000
    Si971    Si       0.12137    0.69261    0.27781    1.000
    N972     N        0.20770    0.68238    0.31779    1.000
    N973     N        0.13860    0.69502    0.31878    1.000
    Si974    Si       0.17031    0.66624    0.33351    1.000
    N975     N        0.13999    0.65814    0.25967    1.000
    N976     N        0.09297    0.68782    0.38063    1.000
    N977     N        0.99597    0.67950    0.47958    1.000
    Si978    Si       0.03657    0.66398    0.48190    1.000
    N979     N        0.05607    0.70463    0.47612    1.000
    N980     N        0.02146    0.66256    0.39072    1.000
    N981     N        0.15805    0.67617    0.49456    1.000
    N982     N        0.22850    0.66270    0.47221    1.000
    N983     N        0.15061    0.69746    0.43335    1.000
    N984     N        0.16509    0.66013    0.37663    1.000
    Si985    Si       0.13209    0.67818    0.39825    1.000
    N986     N        0.09826    0.68582    0.53276    1.000
    N987     N        0.10506    0.68114    0.60238    1.000
    N988     N        0.02386    0.66056    0.61151    1.000
    Si989    Si       0.07676    0.71789    0.51077    1.000
    Si990    Si       0.11531    0.70529    0.56826    1.000
    Si991    Si       0.22879    0.67843    0.56402    1.000
    Si992    Si       0.15084    0.71680    0.51031    1.000
    Si993    Si       0.03323    0.69813    0.62818    1.000
    N994     N        0.00267    0.69911    0.65983    1.000
    N995     N        0.04717    0.69727    0.71633    1.000
    Si996    Si       0.08228    0.68197    0.73589    1.000
    N997     N        0.06874    0.70980    0.65112    1.000
    N998     N        0.11281    0.70963    0.73892    1.000
    N999     N        0.19664    0.68816    0.63581    1.000
    N1000    N        0.21939    0.66233    0.73309    1.000
    N1001    N        0.16427    0.68586    0.70047    1.000
    Si1002   Si       0.15564    0.71347    0.73412    1.000
    Si1003   Si       0.15918    0.68658    0.65658    1.000
    N1004    N        0.05914    0.67434    0.77290    1.000
    N1005    N        0.00627    0.68975    0.83283    1.000
    Si1006   Si       0.02647    0.70009    0.75533    1.000
    N1007    N        0.99184    0.67504    0.76688    1.000
    N1008    N        0.11958    0.69012    0.85564    1.000
    Si1009   Si       0.15999    0.67552    0.85209    1.000
    N1010    N        0.18973    0.70652    0.84115    1.000
    Si1011   Si       0.23037    0.69289    0.85292    1.000
    N1012    N        0.18109    0.70342    0.76828    1.000
    Si1013   Si       0.22002    0.70330    0.74854    1.000
    Si1014   Si       0.08890    0.66359    0.87362    1.000
    N1015    N        0.05417    0.69051    0.87525    1.000
    Si1016   Si       0.08987    0.67920    0.94754    1.000
    Si1017   Si       0.03314    0.70013    0.91126    1.000
    N1018    N        0.04591    0.68200    0.94868    1.000
    Si1019   Si       0.02952    0.67566    0.98908    1.000
    N1020    N        0.99204    0.69018    0.89947    1.000
    N1021    N        0.17126    0.68009    0.95928    1.000
    Si1022   Si       0.20850    0.68184    0.98426    1.000
    N1023    N        0.23489    0.69057    0.89610    1.000
    N1024    N        0.23829    0.70588    0.96207    1.000
    Si1025   Si       0.01146    0.74606    0.01205    1.000
    N1026    N        0.08667    0.75356    0.06417    1.000
    N1027    N        0.02579    0.76082    0.05181    1.000
    N1028    N        0.04842    0.72950    0.11088    1.000
    Si1029   Si       0.05304    0.72246    0.06402    1.000
    Si1030   Si       0.99922    0.77599    0.08533    1.000
    Si1031   Si       0.12695    0.75551    0.08056    1.000
    Si1032   Si       0.17083    0.73592    0.02304    1.000
    N1033    N        0.22779    0.72973    0.08350    1.000
    N1034    N        0.14606    0.72331    0.05662    1.000
    Si1035   Si       0.22840    0.76847    0.06181    1.000
    N1036    N        0.19477    0.77230    0.03454    1.000
    N1037    N        0.01618    0.76182    0.17256    1.000
    Si1038   Si       0.08251    0.74354    0.13534    1.000
    Si1039   Si       0.03791    0.72549    0.18150    1.000
    N1040    N        0.04037    0.72406    0.22705    1.000
    N1041    N        0.07971    0.71666    0.17005    1.000
    Si1042   Si       0.15571    0.71887    0.21695    1.000
    N1043    N        0.16117    0.75188    0.19046    1.000
    Si1044   Si       0.16223    0.74556    0.14538    1.000
    Si1045   Si       0.22867    0.71662    0.12699    1.000
    N1046    N        0.12457    0.74339    0.12376    1.000
    Si1047   Si       0.22017    0.74246    0.24686    1.000
    N1048    N        0.12382    0.72450    0.24630    1.000
    N1049    N        0.04652    0.72645    0.34190    1.000
    N1050    N        0.00661    0.76317    0.29944    1.000
    Si1051   Si       0.03178    0.76892    0.33375    1.000
    N1052    N        0.10840    0.75201    0.35754    1.000
    N1053    N        0.08540    0.77263    0.25971    1.000
    Si1054   Si       0.07672    0.72616    0.37269    1.000
    Si1055   Si       0.07760    0.72965    0.24706    1.000
    N1056    N        0.20721    0.75284    0.28725    1.000
    N1057    N        0.18372    0.73392    0.35227    1.000
    Si1058   Si       0.14238    0.73506    0.33643    1.000
    N1059    N        0.14293    0.76506    0.30393    1.000
    Si1060   Si       0.12919    0.76463    0.26284    1.000
    Si1061   Si       0.21402    0.72652    0.32228    1.000
    Si1062   Si       0.05102    0.74248    0.44998    1.000
    N1063    N        0.00755    0.74775    0.45567    1.000
    N1064    N        0.06042    0.74290    0.40820    1.000
    Si1065   Si       0.16713    0.73542    0.44562    1.000
    N1066    N        0.17963    0.74147    0.48841    1.000
    N1067    N        0.20213    0.74458    0.42028    1.000
    Si1068   Si       0.19318    0.76333    0.38312    1.000
    Si1069   Si       0.11502    0.77194    0.47566    1.000
    N1070    N        0.13427    0.76565    0.43789    1.000
    Si1071   Si       0.05308    0.75019    0.57447    1.000
    N1072    N        0.05505    0.74795    0.53220    1.000
    N1073    N        0.09512    0.74246    0.58673    1.000
    N1074    N        0.02559    0.72894    0.60145    1.000
    Si1075   Si       0.18545    0.74276    0.57484    1.000
    N1076    N        0.17869    0.77018    0.60916    1.000
    Si1077   Si       0.20097    0.77235    0.50987    1.000
    N1078    N        0.22183    0.71876    0.57769    1.000
    N1079    N        0.11461    0.73702    0.50141    1.000
    N1080    N        0.15538    0.71787    0.55318    1.000
    N1081    N        0.02473    0.75842    0.67670    1.000
    N1082    N        0.08136    0.76017    0.70158    1.000
    Si1083   Si       0.05552    0.72731    0.68731    1.000
    Si1084   Si       0.10819    0.75368    0.73394    1.000
    Si1085   Si       0.10193    0.71753    0.62466    1.000
    Si1086   Si       0.18782    0.77275    0.71083    1.000
    N1087    N        0.21349    0.73415    0.71803    1.000
    N1088    N        0.15246    0.75515    0.72758    1.000
    Si1089   Si       0.15141    0.76710    0.64334    1.000
    N1090    N        0.13910    0.72471    0.64560    1.000
    N1091    N        0.06528    0.73636    0.82551    1.000
    Si1092   Si       0.05939    0.76102    0.78977    1.000
    N1093    N        0.00445    0.74931    0.85428    1.000
    N1094    N        0.02882    0.74155    0.76045    1.000
    Si1095   Si       0.10556    0.73092    0.84494    1.000
    N1096    N        0.09656    0.76992    0.77089    1.000
    Si1097   Si       0.03366    0.71867    0.84527    1.000
    N1098    N        0.20881    0.75740    0.79549    1.000
    N1099    N        0.13744    0.74650    0.81849    1.000
    Si1100   Si       0.17543    0.72667    0.80617    1.000
    N1101    N        0.04600    0.74305    0.90948    1.000
    Si1102   Si       0.08968    0.74891    0.91579    1.000
    N1103    N        0.10701    0.75981    0.87877    1.000
    Si1104   Si       0.01670    0.77105    0.89006    1.000
    N1105    N        0.11076    0.71581    0.93503    1.000
    N1106    N        0.14714    0.74618    0.98785    1.000
    Si1107   Si       0.15244    0.72015    0.95060    1.000
    N1108    N        0.18519    0.74228    0.93006    1.000
    Si1109   Si       0.22551    0.72290    0.92371    1.000
    N1110    N        0.06923    0.82086    0.06233    1.000
    N1111    N        0.02052    0.80390    0.11270    1.000
    Si1112   Si       0.06321    0.78267    0.04340    1.000
    N1113    N        0.08639    0.79192    0.00748    1.000
    N1114    N        0.23066    0.79817    0.09132    1.000
    Si1115   Si       0.17011    0.80610    0.04375    1.000
    N1116    N        0.14645    0.79388    0.08004    1.000
    N1117    N        0.14021    0.81914    0.01595    1.000
    Si1118   Si       0.03492    0.79478    0.15181    1.000
    N1119    N        0.07792    0.78549    0.14986    1.000
    N1120    N        0.04139    0.82713    0.18181    1.000
    Si1121   Si       0.08417    0.83021    0.16091    1.000
    N1122    N        0.23632    0.81350    0.16684    1.000
    Si1123   Si       0.15961    0.81455    0.11949    1.000
    N1124    N        0.17474    0.82697    0.18962    1.000
    Si1125   Si       0.22720    0.78892    0.13145    1.000
    N1126    N        0.18440    0.78118    0.13553    1.000
    Si1127   Si       0.17887    0.78916    0.21130    1.000
    N1128    N        0.21923    0.78100    0.22387    1.000
    Si1129   Si       0.06733    0.80573    0.27987    1.000
    N1130    N        0.06538    0.79472    0.32219    1.000
    Si1131   Si       0.10208    0.79317    0.34697    1.000
    N1132    N        0.03133    0.81494    0.25710    1.000
    Si1133   Si       0.99743    0.78724    0.26531    1.000
    N1134    N        0.00010    0.77739    0.36548    1.000
    N1135    N        0.19593    0.81696    0.32118    1.000
    Si1136   Si       0.23284    0.81665    0.34709    1.000
    N1137    N        0.12376    0.82768    0.33014    1.000
    Si1138   Si       0.18054    0.78815    0.29255    1.000
    Si1139   Si       0.16237    0.82805    0.34862    1.000
    N1140    N        0.16099    0.79013    0.25012    1.000
    N1141    N        0.23114    0.77884    0.36825    1.000
    N1142    N        0.02017    0.81103    0.43363    1.000
    N1143    N        0.09822    0.81355    0.38817    1.000
    Si1144   Si       0.00421    0.81106    0.39198    1.000
    Si1145   Si       0.99520    0.78772    0.46139    1.000
    N1146    N        0.07222    0.77574    0.47090    1.000
    Si1147   Si       0.16734    0.83055    0.47478    1.000
    N1148    N        0.13519    0.80586    0.49442    1.000
    N1149    N        0.16287    0.79368    0.37826    1.000
    N1150    N        0.20387    0.80816    0.48665    1.000
    Si1151   Si       0.13281    0.80054    0.40971    1.000
    N1152    N        0.05455    0.79159    0.58513    1.000
    Si1153   Si       0.09664    0.78981    0.59604    1.000
    Si1154   Si       0.01488    0.81373    0.58378    1.000
    Si1155   Si       0.05505    0.78960    0.50992    1.000
    N1156    N        0.07605    0.82671    0.51841    1.000
    N1157    N        0.00870    0.79626    0.50554    1.000
    N1158    N        0.00296    0.83535    0.61942    1.000
    N1159    N        0.99077    0.77946    0.57121    1.000
    Si1160   Si       0.11792    0.82617    0.52888    1.000
    N1161    N        0.12513    0.80464    0.56664    1.000
    Si1162   Si       0.16836    0.80443    0.57719    1.000
    N1163    N        0.22241    0.81987    0.61848    1.000
    N1164    N        0.18461    0.77876    0.54803    1.000
    N1165    N        0.05345    0.82657    0.66483    1.000
    Si1166   Si       0.05373    0.79014    0.68693    1.000
    N1167    N        0.03345    0.80833    0.72253    1.000
    N1168    N        0.11459    0.78724    0.63333    1.000
    N1169    N        0.18099    0.78998    0.66980    1.000
    N1170    N        0.21039    0.80254    0.73397    1.000
    Si1171   Si       0.21186    0.78331    0.63946    1.000
    N1172    N        0.03607    0.79714    0.78982    1.000
    Si1173   Si       0.01468    0.78349    0.75302    1.000
    Si1174   Si       0.02148    0.83390    0.80845    1.000
    N1175    N        0.11599    0.81032    0.82885    1.000
    N1176    N        0.23475    0.79048    0.85362    1.000
    Si1177   Si       0.19836    0.79461    0.77665    1.000
    N1178    N        0.15649    0.80736    0.77513    1.000
    Si1179   Si       0.12695    0.78319    0.79724    1.000
    N1180    N        0.21465    0.82665    0.80112    1.000
    Si1181   Si       0.23565    0.83031    0.83793    1.000
    N1182    N        0.02646    0.81400    0.88649    1.000
    Si1183   Si       0.06053    0.79486    0.97249    1.000
    Si1184   Si       0.00182    0.81886    0.97748    1.000
    N1185    N        0.09134    0.78008    0.94735    1.000
    N1186    N        0.02194    0.77907    0.98508    1.000
    N1187    N        0.10013    0.83050    0.89392    1.000
    N1188    N        0.15894    0.80512    0.95880    1.000
    N1189    N        0.21747    0.81588    0.92162    1.000
    N1190    N        0.16529    0.80469    0.88991    1.000
    Si1191   Si       0.12455    0.80173    0.87159    1.000
    Si1192   Si       0.12652    0.78604    0.98243    1.000
    Si1193   Si       0.18117    0.78740    0.92781    1.000
    N1194    N        0.01582    0.86123    0.07269    1.000
    N1195    N        0.08629    0.87147    0.01619    1.000
    Si1196   Si       0.11023    0.86502    0.11205    1.000
    Si1197   Si       0.10480    0.83565    0.03789    1.000
    N1198    N        0.99217    0.84639    0.00799    1.000
    Si1199   Si       0.04502    0.83595    0.09210    1.000
    N1200    N        0.12409    0.86448    0.07060    1.000
    Si1201   Si       0.20240    0.86193    0.08560    1.000
    Si1202   Si       0.19998    0.87234    0.01732    1.000
    N1203    N        0.19738    0.83964    0.04740    1.000
    N1204    N        0.15923    0.88475    0.00790    1.000
    N1205    N        0.06926    0.85174    0.12480    1.000
    N1206    N        0.10466    0.84111    0.20024    1.000
    Si1207   Si       0.09290    0.86092    0.23684    1.000
    N1208    N        0.05064    0.87658    0.22953    1.000
    Si1209   Si       0.02935    0.84082    0.22115    1.000
    N1210    N        0.18959    0.84595    0.12461    1.000
    Si1211   Si       0.21013    0.85183    0.16644    1.000
    N1212    N        0.12763    0.83772    0.14159    1.000
    Si1213   Si       0.14214    0.85333    0.18015    1.000
    N1214    N        0.21372    0.87464    0.20429    1.000
    N1215    N        0.07944    0.87346    0.34627    1.000
    N1216    N        0.00930    0.86976    0.30240    1.000
    Si1217   Si       0.01157    0.86902    0.34607    1.000
    N1218    N        0.09015    0.84555    0.27706    1.000
    Si1219   Si       0.10805    0.86346    0.31197    1.000
    N1220    N        0.14121    0.89320    0.30607    1.000
    N1221    N        0.02713    0.83743    0.36799    1.000
    Si1222   Si       0.06875    0.84668    0.37816    1.000
    N1223    N        0.06564    0.86403    0.41811    1.000
    Si1224   Si       0.02961    0.85266    0.44059    1.000
    N1225    N        0.03360    0.85860    0.48279    1.000
    N1226    N        0.09769    0.88354    0.47846    1.000
    N1227    N        0.99645    0.88080    0.42603    1.000
    N1228    N        0.16774    0.86354    0.37214    1.000
    N1229    N        0.15262    0.83233    0.43378    1.000
    N1230    N        0.23627    0.84811    0.37668    1.000
    Si1231   Si       0.15969    0.87104    0.41435    1.000
    N1232    N        0.17792    0.87322    0.47965    1.000
    Si1233   Si       0.21632    0.88588    0.45966    1.000
    Si1234   Si       0.20784    0.88141    0.37659    1.000
    Si1235   Si       0.13842    0.89041    0.49250    1.000
    N1236    N        0.19857    0.89177    0.41942    1.000
    N1237    N        0.05874    0.86926    0.60015    1.000
    N1238    N        0.01365    0.84695    0.55448    1.000
    Si1239   Si       0.02975    0.88507    0.56926    1.000
    Si1240   Si       0.06613    0.86966    0.50709    1.000
    Si1241   Si       0.00785    0.83974    0.51137    1.000
    N1242    N        0.13541    0.86563    0.52956    1.000
    N1243    N        0.17577    0.84680    0.57744    1.000
    Si1244   Si       0.19786    0.85414    0.61339    1.000
    Si1245   Si       0.15130    0.88218    0.56516    1.000
    N1246    N        0.12405    0.89100    0.59587    1.000
    Si1247   Si       0.02738    0.84523    0.69867    1.000
    N1248    N        0.05523    0.87354    0.71694    1.000
    Si1249   Si       0.04082    0.85298    0.63405    1.000
    N1250    N        0.03213    0.88726    0.65916    1.000
    N1251    N        0.16527    0.85560    0.64202    1.000
    Si1252   Si       0.13905    0.88911    0.63867    1.000
    N1253    N        0.21409    0.85733    0.69057    1.000
    Si1254   Si       0.23687    0.83545    0.72295    1.000
    Si1255   Si       0.17957    0.83478    0.67979    1.000
    N1256    N        0.15161    0.83994    0.71311    1.000
    N1257    N        0.02565    0.86518    0.77769    1.000
    N1258    N        0.09883    0.85243    0.77154    1.000
    Si1259   Si       0.06346    0.87280    0.75884    1.000
    Si1260   Si       0.09646    0.84480    0.81575    1.000
    N1261    N        0.05682    0.84352    0.83406    1.000
    N1262    N        0.11458    0.88137    0.82901    1.000
    Si1263   Si       0.20898    0.86660    0.78548    1.000
    N1264    N        0.16718    0.87177    0.77600    1.000
    N1265    N        0.21052    0.85445    0.86216    1.000
    Si1266   Si       0.14101    0.84417    0.75592    1.000
    N1267    N        0.23440    0.86664    0.75179    1.000
    Si1268   Si       0.00591    0.84974    0.90322    1.000
    N1269    N        0.04247    0.87390    0.89861    1.000
    Si1270   Si       0.07694    0.86491    0.97347    1.000
    Si1271   Si       0.06165    0.84147    0.87865    1.000
    N1272    N        0.04761    0.83476    0.96682    1.000
    N1273    N        0.20176    0.85824    0.97547    1.000
    Si1274   Si       0.12644    0.86103    0.91563    1.000
    N1275    N        0.11751    0.85763    0.95786    1.000
    N1276    N        0.16823    0.87272    0.91718    1.000
    Si1277   Si       0.19176    0.84002    0.89611    1.000
    Si1278   Si       0.15279    0.84495    0.97992    1.000
    N1279    N        0.23496    0.88109    0.92461    1.000
    Si1280   Si       0.23675    0.84511    0.95041    1.000
    Si1281   Si       0.07806    0.90943    0.03674    1.000
    N1282    N        0.04564    0.92905    0.01543    1.000
    N1283    N        0.06217    0.91379    0.07845    1.000
    Si1284   Si       0.08434    0.93688    0.10709    1.000
    Si1285   Si       0.00380    0.93674    0.02423    1.000
    Si1286   Si       0.02016    0.90181    0.08528    1.000
    N1287    N        0.99581    0.93252    0.06797    1.000
    N1288    N        0.11772    0.92862    0.03836    1.000
    N1289    N        0.18363    0.89808    0.06620    1.000
    N1290    N        0.23639    0.89705    0.01986    1.000
    Si1291   Si       0.14570    0.89553    0.04633    1.000
    N1292    N        0.11075    0.90716    0.12614    1.000
    N1293    N        0.00783    0.89886    0.12584    1.000
    Si1294   Si       0.03754    0.91894    0.22700    1.000
    N1295    N        0.04461    0.92978    0.18637    1.000
    Si1296   Si       0.02049    0.93242    0.15001    1.000
    N1297    N        0.16663    0.95049    0.13260    1.000
    N1298    N        0.11182    0.89791    0.24110    1.000
    N1299    N        0.17616    0.92349    0.24395    1.000
    Si1300   Si       0.18676    0.90836    0.20345    1.000
    N1301    N        0.21403    0.93452    0.17993    1.000
    Si1302   Si       0.13634    0.92754    0.15418    1.000
    N1303    N        0.15249    0.89588    0.17913    1.000
    Si1304   Si       0.01613    0.91270    0.29495    1.000
    N1305    N        0.05741    0.92440    0.30281    1.000
    Si1306   Si       0.06510    0.91540    0.34557    1.000
    N1307    N        0.02486    0.90951    0.35814    1.000
    N1308    N        0.00214    0.91791    0.25367    1.000
    Si1309   Si       0.00388    0.95141    0.35134    1.000
    N1310    N        0.20744    0.91116    0.34564    1.000
    Si1311   Si       0.16610    0.92008    0.33171    1.000
    Si1312   Si       0.14038    0.91602    0.26703    1.000
    Si1313   Si       0.21133    0.93628    0.26781    1.000
    N1314    N        0.15322    0.94611    0.36314    1.000
    N1315    N        0.18186    0.95158    0.30183    1.000
    N1316    N        0.24021    0.90168    0.26479    1.000
    Si1317   Si       0.22153    0.95177    0.33478    1.000
    N1318    N        0.08681    0.93526    0.37526    1.000
    Si1319   Si       0.00739    0.91995    0.44099    1.000
    N1320    N        0.05094    0.92720    0.43421    1.000
    Si1321   Si       0.08550    0.89616    0.43748    1.000
    N1322    N        0.13923    0.93333    0.48506    1.000
    N1323    N        0.12449    0.90031    0.41836    1.000
    Si1324   Si       0.12531    0.93749    0.39548    1.000
    N1325    N        0.06299    0.93518    0.59698    1.000
    Si1326   Si       0.06638    0.93946    0.55488    1.000
    N1327    N        0.00365    0.91973    0.57854    1.000
    Si1328   Si       0.02110    0.94709    0.60769    1.000
    N1329    N        0.05500    0.90109    0.53661    1.000
    Si1330   Si       0.08459    0.90158    0.61278    1.000
    N1331    N        0.17003    0.92083    0.55977    1.000
    Si1332   Si       0.21068    0.92332    0.57196    1.000
    N1333    N        0.21391    0.89424    0.60555    1.000
    N1334    N        0.07174    0.94050    0.68776    1.000
    N1335    N        0.01085    0.94764    0.65018    1.000
    Si1336   Si       0.11378    0.93803    0.67602    1.000
    Si1337   Si       0.99347    0.91046    0.66246    1.000
    Si1338   Si       0.06705    0.89713    0.68413    1.000
    N1339    N        0.09946    0.89575    0.65591    1.000
    N1340    N        0.15411    0.92801    0.65248    1.000
    N1341    N        0.21489    0.92441    0.70156    1.000
    Si1342   Si       0.17657    0.93718    0.68822    1.000
    N1343    N        0.13952    0.94147    0.71103    1.000
    N1344    N        0.06222    0.91252    0.77524    1.000
    Si1345   Si       0.02145    0.90636    0.79367    1.000
    Si1346   Si       0.08841    0.94056    0.79628    1.000
    N1347    N        0.03106    0.92835    0.82944    1.000
    N1348    N        0.99549    0.92700    0.76503    1.000
    N1349    N        0.09415    0.94387    0.83912    1.000
    Si1350   Si       0.12543    0.91776    0.85896    1.000
    N1351    N        0.12841    0.93218    0.78157    1.000
    N1352    N        0.16801    0.91230    0.83830    1.000
    Si1353   Si       0.20743    0.89709    0.84913    1.000
    Si1354   Si       0.14665    0.89856    0.80306    1.000
    N1355    N        0.22989    0.89492    0.81219    1.000
    Si1356   Si       0.05537    0.93965    0.97497    1.000
    Si1357   Si       0.06758    0.90646    0.90929    1.000
    N1358    N        0.06642    0.90274    0.95241    1.000
    N1359    N        0.05590    0.94739    0.89574    1.000
    N1360    N        0.10782    0.89596    0.89431    1.000
    N1361    N        0.20727    0.93151    0.96226    1.000
    N1362    N        0.22308    0.93140    0.87558    1.000
    Si1363   Si       0.19805    0.89243    0.94514    1.000
    Si1364   Si       0.23999    0.93159    0.99320    1.000
    Si1365   Si       0.08966    0.99883    0.07093    1.000
    N1366    N        0.10539    0.00018    0.02985    1.000
    N1367    N        0.10932    0.97010    0.09437    1.000
    N1368    N        0.99745    0.97846    0.01680    1.000
    N1369    N        0.04317    0.00440    0.07436    1.000
    Si1370   Si       0.01996    0.99126    0.11642    1.000
    Si1371   Si       0.00645    0.00400    0.05034    1.000
    Si1372   Si       0.15208    0.97685    0.10089    1.000
    Si1373   Si       0.20946    0.98638    0.04963    1.000
    N1374    N        0.16746    0.98067    0.06001    1.000
    Si1375   Si       0.13690    0.96743    0.03135    1.000
    N1376    N        0.21993    0.96500    0.01432    1.000
    N1377    N        0.23121    0.97662    0.08767    1.000
    Si1378   Si       0.06866    0.96353    0.17217    1.000
    N1379    N        0.05746    0.99696    0.19662    1.000
    Si1380   Si       0.03051    0.98970    0.23032    1.000
    N1381    N        0.05408    0.95891    0.12968    1.000
    N1382    N        0.11146    0.96133    0.16817    1.000
    N1383    N        0.99729    0.96971    0.14896    1.000
    Si1384   Si       0.19397    0.96961    0.16226    1.000
    N1385    N        0.16682    0.98573    0.19277    1.000
    N1386    N        0.21845    0.97433    0.24594    1.000
    N1387    N        0.22062    0.00186    0.15274    1.000
    Si1388   Si       0.18690    0.99884    0.22848    1.000
    Si1389   Si       0.13485    0.99549    0.16507    1.000
    N1390    N        0.07385    0.99732    0.30238    1.000
    Si1391   Si       0.07745    0.95813    0.28281    1.000
    N1392    N        0.03797    0.97575    0.37036    1.000
    N1393    N        0.05417    0.95575    0.24572    1.000
    N1394    N        0.13977    0.00493    0.32859    1.000
    N1395    N        0.20630    0.99246    0.34707    1.000
    Si1396   Si       0.14936    0.98109    0.29300    1.000
    Si1397   Si       0.16512    0.98908    0.35924    1.000
    N1398    N        0.12003    0.95315    0.28015    1.000
    N1399    N        0.24631    0.95385    0.29851    1.000
    N1400    N        0.15647    0.00700    0.25974    1.000
    N1401    N        0.09783    0.99070    0.48827    1.000
    N1402    N        0.99612    0.99803    0.47241    1.000
    N1403    N        0.05431    0.99639    0.42787    1.000
    Si1404   Si       0.06377    0.95864    0.40451    1.000
    Si1405   Si       0.01123    0.99299    0.43268    1.000
    N1406    N        0.11389    0.96918    0.42232    1.000
    N1407    N        0.16475    0.99911    0.46381    1.000
    N1408    N        0.21632    0.98471    0.41683    1.000
    Si1409   Si       0.12957    0.97090    0.46627    1.000
    N1410    N        0.04555    0.97345    0.53676    1.000
    Si1411   Si       0.00530    0.98953    0.54854    1.000
    N1412    N        0.00963    0.98542    0.59224    1.000
    Si1413   Si       0.08499    0.99227    0.52975    1.000
    N1414    N        0.10454    0.95710    0.54726    1.000
    N1415    N        0.15221    0.97826    0.59681    1.000
    N1416    N        0.16134    0.99087    0.53753    1.000
    Si1417   Si       0.14660    0.95682    0.55900    1.000
    N1418    N        0.23434    0.95250    0.59374    1.000
    Si1419   Si       0.18425    0.99717    0.50165    1.000
    N1420    N        0.22079    0.97433    0.50042    1.000
    Si1421   Si       0.03960    0.96672    0.67634    1.000
    N1422    N        0.02093    0.97103    0.71721    1.000
    N1423    N        0.04813    0.00298    0.65294    1.000
    N1424    N        0.11521    0.97756    0.65568    1.000
    Si1425   Si       0.20824    0.00701    0.68871    1.000
    Si1426   Si       0.22546    0.95428    0.73040    1.000
    N1427    N        0.18712    0.97589    0.66871    1.000
    Si1428   Si       0.15453    0.97085    0.63928    1.000
    N1429    N        0.23601    0.99243    0.71814    1.000
    Si1430   Si       0.14365    0.95570    0.75180    1.000
    N1431    N        0.07189    0.97868    0.78270    1.000
    N1432    N        0.05010    0.99831    0.84532    1.000
    N1433    N        0.00908    0.00397    0.77546    1.000
    Si1434   Si       0.05543    0.95686    0.85158    1.000
    Si1435   Si       0.04176    0.98838    0.75289    1.000
    Si1436   Si       0.01514    0.00655    0.81953    1.000
    N1437    N        0.22244    0.98301    0.82599    1.000
    N1438    N        0.13196    0.99681    0.75919    1.000
    Si1439   Si       0.17535    0.00836    0.75220    1.000
    Si1440   Si       0.22009    0.97389    0.86942    1.000
    N1441    N        0.18660    0.96583    0.75097    1.000
    N1442    N        0.02279    0.96239    0.95499    1.000
    Si1443   Si       0.05189    0.97612    0.92581    1.000
    N1444    N        0.08460    0.96847    0.95723    1.000
    Si1445   Si       0.99060    0.98825    0.97443    1.000
    Si1446   Si       0.12012    0.99174    0.96720    1.000
    N1447    N        0.20749    0.01049    0.96151    1.000
    N1448    N        0.14235    0.95180    0.88426    1.000
    N1449    N        0.13702    0.00248    0.92797    1.000
    Si1450   Si       0.14545    0.99385    0.88733    1.000
    N1451    N        0.18912    0.00067    0.88680    1.000
    Si1452   Si       0.19387    0.97169    0.97898    1.000
    N1453    N        0.15118    0.97314    0.99053    1.000
    Si1454   Si       0.29645    0.02382    0.07474    1.000
    N1455    N        0.34087    0.02344    0.06190    1.000
    N1456    N        0.27365    0.06203    0.06970    1.000
    Si1457   Si       0.35595    0.01134    0.02148    1.000
    N1458    N        0.37547    0.04537    0.00163    1.000
    Si1459   Si       0.37426    0.03621    0.08571    1.000
    N1460    N        0.47934    0.02991    0.04527    1.000
    N1461    N        0.40997    0.04089    0.05930    1.000
    Si1462   Si       0.44882    0.03158    0.07573    1.000
    N1463    N        0.45534    0.05739    0.10985    1.000
    Si1464   Si       0.48115    0.06805    0.02327    1.000
    Si1465   Si       0.40509    0.06685    0.02497    1.000
    N1466    N        0.27733    0.01811    0.18859    1.000
    Si1467   Si       0.29553    0.03014    0.22768    1.000
    N1468    N        0.33955    0.03102    0.21912    1.000
    Si1469   Si       0.30381    0.02057    0.15460    1.000
    N1470    N        0.31314    0.06341    0.15445    1.000
    N1471    N        0.27908    0.06671    0.24380    1.000
    Si1472   Si       0.47089    0.04067    0.14677    1.000
    N1473    N        0.40521    0.05176    0.23059    1.000
    Si1474   Si       0.42686    0.01695    0.21544    1.000
    N1475    N        0.37742    0.05484    0.16925    1.000
    Si1476   Si       0.36845    0.06329    0.21096    1.000
    N1477    N        0.44000    0.02439    0.17307    1.000
    Si1478   Si       0.39826    0.01703    0.15791    1.000
    N1479    N        0.25408    0.03084    0.36664    1.000
    Si1480   Si       0.24663    0.06423    0.27542    1.000
    N1481    N        0.34835    0.06393    0.31746    1.000
    Si1482   Si       0.36728    0.02357    0.31191    1.000
    N1483    N        0.47041    0.02573    0.30884    1.000
    N1484    N        0.40585    0.03170    0.29202    1.000
    N1485    N        0.38145    0.01176    0.35167    1.000
    Si1486   Si       0.41545    0.06769    0.26869    1.000
    Si1487   Si       0.31376    0.03494    0.48996    1.000
    N1488    N        0.27059    0.03158    0.48205    1.000
    Si1489   Si       0.28782    0.03873    0.39536    1.000
    N1490    N        0.32888    0.04739    0.38099    1.000
    Si1491   Si       0.24869    0.05817    0.45538    1.000
    Si1492   Si       0.36254    0.02189    0.39031    1.000
    N1493    N        0.48239    0.04266    0.43955    1.000
    N1494    N        0.37321    0.03986    0.43167    1.000
    Si1495   Si       0.37460    0.01602    0.46711    1.000
    N1496    N        0.32293    0.02440    0.53180    1.000
    Si1497   Si       0.35925    0.04643    0.53968    1.000
    Si1498   Si       0.24321    0.01185    0.50940    1.000
    N1499    N        0.26795    0.00941    0.61784    1.000
    N1500    N        0.37418    0.04205    0.58112    1.000
    Si1501   Si       0.42715    0.02903    0.51681    1.000
    N1502    N        0.44004    0.04805    0.60067    1.000
    Si1503   Si       0.40963    0.01950    0.58793    1.000
    N1504    N        0.38572    0.03123    0.50695    1.000
    N1505    N        0.44908    0.06383    0.52918    1.000
    Si1506   Si       0.36932    0.06833    0.61676    1.000
    N1507    N        0.29218    0.02634    0.67898    1.000
    Si1508   Si       0.26206    0.04117    0.64888    1.000
    Si1509   Si       0.29600    0.04809    0.71698    1.000
    Si1510   Si       0.33160    0.02507    0.66133    1.000
    N1511    N        0.25576    0.05866    0.73667    1.000
    N1512    N        0.33407    0.06295    0.64086    1.000
    N1513    N        0.32459    0.02461    0.74241    1.000
    N1514    N        0.39870    0.06370    0.64846    1.000
    Si1515   Si       0.39892    0.01908    0.65699    1.000
    Si1516   Si       0.44796    0.06127    0.64560    1.000
    Si1517   Si       0.36696    0.02119    0.73190    1.000
    Si1518   Si       0.48534    0.02872    0.73372    1.000
    N1519    N        0.36817    0.02369    0.68832    1.000
    N1520    N        0.44135    0.02020    0.66416    1.000
    N1521    N        0.48583    0.05689    0.70268    1.000
    N1522    N        0.32666    0.03938    0.81806    1.000
    Si1523   Si       0.32966    0.03029    0.86035    1.000
    Si1524   Si       0.24334    0.01988    0.75195    1.000
    Si1525   Si       0.31928    0.01248    0.78456    1.000
    N1526    N        0.24104    0.04828    0.83912    1.000
    N1527    N        0.46690    0.02881    0.82815    1.000
    N1528    N        0.39518    0.04173    0.75859    1.000
    N1529    N        0.48107    0.05623    0.76782    1.000
    Si1530   Si       0.45207    0.05003    0.86478    1.000
    Si1531   Si       0.25738    0.03638    0.87801    1.000
    Si1532   Si       0.31030    0.02089    0.96300    1.000
    N1533    N        0.27348    0.04040    0.97570    1.000
    N1534    N        0.33393    0.05415    0.94832    1.000
    N1535    N        0.30047    0.05168    0.88269    1.000
    Si1536   Si       0.37774    0.05124    0.95791    1.000
    N1537    N        0.46555    0.04764    0.94075    1.000
    N1538    N        0.36847    0.04033    0.88124    1.000
    N1539    N        0.39491    0.01447    0.94228    1.000
    Si1540   Si       0.28341    0.10482    0.08185    1.000
    N1541    N        0.31907    0.11945    0.06312    1.000
    Si1542   Si       0.36081    0.10931    0.07291    1.000
    N1543    N        0.35905    0.07457    0.10017    1.000
    N1544    N        0.38317    0.10338    0.03628    1.000
    N1545    N        0.44287    0.07260    0.00500    1.000
    N1546    N        0.49026    0.10750    0.03911    1.000
    N1547    N        0.28591    0.11374    0.12412    1.000
    N1548    N        0.35796    0.11937    0.15123    1.000
    Si1549   Si       0.35087    0.07766    0.14219    1.000
    Si1550   Si       0.29767    0.10640    0.24315    1.000
    N1551    N        0.30161    0.11423    0.20020    1.000
    Si1552   Si       0.28129    0.09613    0.16451    1.000
    N1553    N        0.24310    0.07079    0.16494    1.000
    N1554    N        0.48359    0.07806    0.16102    1.000
    Si1555   Si       0.46031    0.09676    0.13131    1.000
    N1556    N        0.36313    0.10628    0.21956    1.000
    N1557    N        0.42574    0.11852    0.14336    1.000
    Si1558   Si       0.47327    0.11427    0.24254    1.000
    N1559    N        0.32643    0.11126    0.27569    1.000
    N1560    N        0.27062    0.08301    0.30681    1.000
    N1561    N        0.31104    0.10897    0.34748    1.000
    Si1562   Si       0.31273    0.08751    0.30795    1.000
    Si1563   Si       0.26533    0.11697    0.33320    1.000
    Si1564   Si       0.36648    0.12361    0.25904    1.000
    Si1565   Si       0.37408    0.09892    0.32440    1.000
    N1566    N        0.39618    0.10346    0.28641    1.000
    N1567    N        0.45393    0.10363    0.32491    1.000
    Si1568   Si       0.47524    0.10250    0.36189    1.000
    N1569    N        0.45741    0.08019    0.26393    1.000
    N1570    N        0.38287    0.08712    0.36824    1.000
    Si1571   Si       0.47827    0.07068    0.30267    1.000
    Si1572   Si       0.34004    0.08816    0.37305    1.000
    N1573    N        0.33441    0.10316    0.41606    1.000
    Si1574   Si       0.29418    0.10873    0.42763    1.000
    Si1575   Si       0.35971    0.08021    0.44348    1.000
    N1576    N        0.33283    0.07238    0.47840    1.000
    Si1577   Si       0.26065    0.11871    0.49498    1.000
    N1578    N        0.27486    0.06950    0.42492    1.000
    N1579    N        0.44918    0.09019    0.39576    1.000
    N1580    N        0.39658    0.10367    0.43975    1.000
    Si1581   Si       0.40813    0.10527    0.39826    1.000
    N1582    N        0.46011    0.10000    0.46583    1.000
    Si1583   Si       0.47642    0.08424    0.42831    1.000
    N1584    N        0.35165    0.08933    0.53849    1.000
    N1585    N        0.29012    0.11693    0.52848    1.000
    Si1586   Si       0.32608    0.10545    0.50592    1.000
    Si1587   Si       0.35009    0.12038    0.56880    1.000
    N1588    N        0.24202    0.12700    0.57582    1.000
    N1589    N        0.37185    0.10927    0.60504    1.000
    N1590    N        0.45523    0.11197    0.57894    1.000
    Si1591   Si       0.47398    0.08638    0.50399    1.000
    Si1592   Si       0.46050    0.06870    0.57088    1.000
    N1593    N        0.48705    0.12365    0.52420    1.000
    Si1594   Si       0.31751    0.11009    0.73932    1.000
    Si1595   Si       0.30798    0.09413    0.66058    1.000
    N1596    N        0.26810    0.08493    0.63953    1.000
    N1597    N        0.31303    0.08530    0.70436    1.000
    N1598    N        0.39080    0.09740    0.71955    1.000
    Si1599   Si       0.40127    0.09527    0.67820    1.000
    N1600    N        0.44390    0.09677    0.67364    1.000
    Si1601   Si       0.47171    0.09770    0.70815    1.000
    N1602    N        0.29035    0.09854    0.81740    1.000
    N1603    N        0.34052    0.08879    0.77014    1.000
    Si1604   Si       0.32955    0.08213    0.81095    1.000
    Si1605   Si       0.24969    0.08940    0.82904    1.000
    N1606    N        0.35961    0.09548    0.83925    1.000
    Si1607   Si       0.24142    0.09647    0.75301    1.000
    N1608    N        0.27704    0.12137    0.74906    1.000
    Si1609   Si       0.38323    0.12612    0.82293    1.000
    Si1610   Si       0.44780    0.11879    0.85798    1.000
    N1611    N        0.40143    0.11100    0.78706    1.000
    N1612    N        0.46599    0.11095    0.81979    1.000
    Si1613   Si       0.48223    0.09825    0.78060    1.000
    Si1614   Si       0.38294    0.08316    0.76039    1.000
    N1615    N        0.42451    0.08381    0.87199    1.000
    N1616    N        0.45842    0.11408    0.74681    1.000
    N1617    N        0.24977    0.10457    0.87040    1.000
    Si1618   Si       0.24262    0.09338    0.91037    1.000
    Si1619   Si       0.27526    0.08567    0.97939    1.000
    N1620    N        0.28091    0.09423    0.93437    1.000
    N1621    N        0.35554    0.10676    0.90730    1.000
    Si1622   Si       0.31717    0.07757    0.91682    1.000
    N1623    N        0.30180    0.11669    0.99676    1.000
    Si1624   Si       0.38010    0.08089    0.87555    1.000
    N1625    N        0.47262    0.11532    0.96414    1.000
    Si1626   Si       0.38621    0.12067    0.93827    1.000
    N1627    N        0.40458    0.08376    0.94934    1.000
    Si1628   Si       0.44508    0.07875    0.96206    1.000
    Si1629   Si       0.30221    0.14363    0.03056    1.000
    N1630    N        0.32355    0.17720    0.00497    1.000
    N1631    N        0.27071    0.17333    0.03755    1.000
    N1632    N        0.25003    0.13324    0.07919    1.000
    Si1633   Si       0.25069    0.14044    0.12676    1.000
    N1634    N        0.38446    0.13884    0.08954    1.000
    Si1635   Si       0.47368    0.13496    0.00753    1.000
    Si1636   Si       0.39229    0.13973    0.01243    1.000
    N1637    N        0.43517    0.15317    0.01626    1.000
    N1638    N        0.38479    0.17779    0.03376    1.000
    Si1639   Si       0.25675    0.15445    0.20742    1.000
    N1640    N        0.34403    0.17467    0.19177    1.000
    N1641    N        0.24916    0.13267    0.17120    1.000
    Si1642   Si       0.34316    0.13051    0.18945    1.000
    N1643    N        0.26662    0.13815    0.24700    1.000
    N1644    N        0.25855    0.18444    0.12625    1.000
    Si1645   Si       0.39183    0.14099    0.13164    1.000
    N1646    N        0.37883    0.18210    0.13107    1.000
    N1647    N        0.47756    0.12889    0.20117    1.000
    Si1648   Si       0.41628    0.17846    0.24518    1.000
    Si1649   Si       0.46520    0.17029    0.19628    1.000
    N1650    N        0.47877    0.18398    0.15531    1.000
    N1651    N        0.28057    0.15345    0.31441    1.000
    Si1652   Si       0.32225    0.15505    0.33360    1.000
    Si1653   Si       0.27316    0.17170    0.27635    1.000
    N1654    N        0.36406    0.13969    0.33717    1.000
    N1655    N        0.37573    0.16677    0.25925    1.000
    Si1656   Si       0.39624    0.16758    0.35220    1.000
    N1657    N        0.42225    0.16917    0.31816    1.000
    N1658    N        0.44189    0.14540    0.25875    1.000
    Si1659   Si       0.43173    0.13180    0.29824    1.000
    N1660    N        0.27324    0.14316    0.40828    1.000
    Si1661   Si       0.31786    0.16498    0.47585    1.000
    Si1662   Si       0.29656    0.17906    0.40811    1.000
    N1663    N        0.32870    0.18240    0.43783    1.000
    N1664    N        0.29353    0.12710    0.46795    1.000
    N1665    N        0.34857    0.14247    0.49775    1.000
    N1666    N        0.48899    0.16993    0.42572    1.000
    Si1667   Si       0.45036    0.16917    0.40655    1.000
    N1668    N        0.42683    0.16325    0.44555    1.000
    N1669    N        0.41858    0.14609    0.38245    1.000
    Si1670   Si       0.42484    0.12581    0.46741    1.000
    Si1671   Si       0.28007    0.14278    0.56296    1.000
    N1672    N        0.31532    0.13705    0.58710    1.000
    N1673    N        0.35550    0.17823    0.61798    1.000
    N1674    N        0.42102    0.13452    0.50822    1.000
    N1675    N        0.37614    0.15329    0.55837    1.000
    Si1676   Si       0.38551    0.15729    0.51651    1.000
    Si1677   Si       0.44941    0.13767    0.54249    1.000
    Si1678   Si       0.45821    0.14581    0.60370    1.000
    N1679    N        0.45344    0.17337    0.56826    1.000
    N1680    N        0.42455    0.16158    0.62416    1.000
    Si1681   Si       0.31613    0.16119    0.62119    1.000
    Si1682   Si       0.31405    0.16489    0.69131    1.000
    N1683    N        0.27004    0.16864    0.69920    1.000
    N1684    N        0.33776    0.14565    0.72386    1.000
    N1685    N        0.31367    0.13698    0.65799    1.000
    Si1686   Si       0.24950    0.15351    0.73525    1.000
    Si1687   Si       0.25418    0.17703    0.66093    1.000
    Si1688   Si       0.37747    0.13971    0.71183    1.000
    N1689    N        0.41106    0.16021    0.73077    1.000
    Si1690   Si       0.38517    0.14376    0.62773    1.000
    N1691    N        0.46305    0.18062    0.68247    1.000
    N1692    N        0.38268    0.13334    0.66841    1.000
    N1693    N        0.31253    0.15084    0.86175    1.000
    Si1694   Si       0.33023    0.17870    0.83383    1.000
    Si1695   Si       0.26964    0.14145    0.86282    1.000
    N1696    N        0.24498    0.15032    0.82857    1.000
    Si1697   Si       0.25330    0.18505    0.80470    1.000
    N1698    N        0.25321    0.18777    0.76110    1.000
    N1699    N        0.36480    0.16558    0.81227    1.000
    Si1700   Si       0.42703    0.13805    0.76413    1.000
    N1701    N        0.41349    0.14983    0.84973    1.000
    N1702    N        0.43476    0.17271    0.78964    1.000
    Si1703   Si       0.40367    0.18376    0.82040    1.000
    Si1704   Si       0.33671    0.14638    0.89790    1.000
    N1705    N        0.31730    0.15885    0.93502    1.000
    N1706    N        0.25792    0.16602    0.89954    1.000
    Si1707   Si       0.32798    0.14449    0.97248    1.000
    Si1708   Si       0.28279    0.18478    0.93019    1.000
    N1709    N        0.47487    0.13373    0.88973    1.000
    N1710    N        0.36979    0.13516    0.97377    1.000
    N1711    N        0.36493    0.17723    0.89455    1.000
    N1712    N        0.48419    0.18148    0.93613    1.000
    Si1713   Si       0.40866    0.17188    0.88869    1.000
    Si1714   Si       0.46072    0.14335    0.93087    1.000
    N1715    N        0.41903    0.14371    0.92171    1.000
    Si1716   Si       0.35048    0.20244    0.02857    1.000
    N1717    N        0.34382    0.20205    0.07259    1.000
    Si1718   Si       0.32108    0.22757    0.09860    1.000
    N1719    N        0.28107    0.23704    0.09138    1.000
    Si1720   Si       0.28416    0.19842    0.00291    1.000
    N1721    N        0.34840    0.24219    0.01211    1.000
    N1722    N        0.27752    0.23938    0.01478    1.000
    Si1723   Si       0.24377    0.21724    0.09986    1.000
    Si1724   Si       0.45471    0.23015    0.08189    1.000
    N1725    N        0.42155    0.20119    0.07896    1.000
    N1726    N        0.46710    0.21499    0.04097    1.000
    Si1727   Si       0.42705    0.19265    0.03398    1.000
    N1728    N        0.41524    0.23013    0.00806    1.000
    Si1729   Si       0.45892    0.24313    0.00909    1.000
    Si1730   Si       0.38253    0.18230    0.08395    1.000
    Si1731   Si       0.31495    0.20108    0.21399    1.000
    N1732    N        0.32131    0.22372    0.14210    1.000
    Si1733   Si       0.28041    0.21222    0.15371    1.000
    Si1734   Si       0.35498    0.20262    0.16038    1.000
    N1735    N        0.27957    0.18995    0.19112    1.000
    N1736    N        0.31671    0.24298    0.21159    1.000
    Si1737   Si       0.48130    0.22691    0.15177    1.000
    N1738    N        0.42732    0.19152    0.20515    1.000
    N1739    N        0.37587    0.24111    0.16760    1.000
    Si1740   Si       0.41354    0.23094    0.18685    1.000
    Si1741   Si       0.33923    0.21428    0.35297    1.000
    Si1742   Si       0.34882    0.19713    0.27309    1.000
    N1743    N        0.33437    0.19556    0.31530    1.000
    N1744    N        0.36201    0.23660    0.25941    1.000
    N1745    N        0.31539    0.17897    0.36940    1.000
    N1746    N        0.31022    0.18751    0.25473    1.000
    Si1747   Si       0.44713    0.20346    0.30536    1.000
    N1748    N        0.42328    0.21451    0.26896    1.000
    N1749    N        0.37820    0.20463    0.36880    1.000
    Si1750   Si       0.46086    0.23966    0.36517    1.000
    N1751    N        0.48671    0.18646    0.30083    1.000
    N1752    N        0.44469    0.24231    0.32430    1.000
    N1753    N        0.27042    0.21333    0.41342    1.000
    Si1754   Si       0.34880    0.22078    0.44062    1.000
    N1755    N        0.34550    0.23662    0.48058    1.000
    N1756    N        0.46168    0.22063    0.46661    1.000
    Si1757   Si       0.40239    0.22792    0.39602    1.000
    N1758    N        0.39200    0.22127    0.43618    1.000
    Si1759   Si       0.42148    0.20256    0.46297    1.000
    N1760    N        0.44079    0.20985    0.38931    1.000
    N1761    N        0.34769    0.21085    0.54511    1.000
    Si1762   Si       0.30353    0.21739    0.54540    1.000
    Si1763   Si       0.26385    0.21007    0.59334    1.000
    N1764    N        0.29640    0.23741    0.58530    1.000
    Si1765   Si       0.25291    0.19053    0.51776    1.000
    N1766    N        0.29372    0.19029    0.50056    1.000
    N1767    N        0.27085    0.18654    0.55843    1.000
    Si1768   Si       0.36957    0.19151    0.57862    1.000
    Si1769   Si       0.37359    0.22768    0.51447    1.000
    N1770    N        0.40063    0.22137    0.58947    1.000
    Si1771   Si       0.44435    0.21406    0.58133    1.000
    N1772    N        0.39995    0.19654    0.49934    1.000
    N1773    N        0.30737    0.24148    0.74738    1.000
    N1774    N        0.33483    0.20411    0.68552    1.000
    Si1775   Si       0.35975    0.20986    0.65115    1.000
    Si1776   Si       0.32783    0.24092    0.70844    1.000
    Si1777   Si       0.26526    0.22789    0.74847    1.000
    N1778    N        0.24909    0.24484    0.70893    1.000
    N1779    N        0.28026    0.18679    0.62743    1.000
    N1780    N        0.46177    0.21947    0.62067    1.000
    N1781    N        0.40194    0.21091    0.66472    1.000
    Si1782   Si       0.44015    0.18922    0.71949    1.000
    N1783    N        0.42412    0.22981    0.72140    1.000
    N1784    N        0.47974    0.19495    0.73869    1.000
    Si1785   Si       0.43840    0.19449    0.64811    1.000
    N1786    N        0.32801    0.21832    0.85589    1.000
    Si1787   Si       0.29088    0.22829    0.83666    1.000
    N1788    N        0.24762    0.21816    0.83482    1.000
    N1789    N        0.29730    0.19113    0.80895    1.000
    Si1790   Si       0.46991    0.19876    0.78123    1.000
    N1791    N        0.39921    0.21906    0.84048    1.000
    N1792    N        0.45735    0.23926    0.78309    1.000
    Si1793   Si       0.34139    0.21663    0.89690    1.000
    N1794    N        0.30192    0.22258    0.91916    1.000
    N1795    N        0.26249    0.18386    0.96982    1.000
    Si1796   Si       0.47637    0.20804    0.90292    1.000
    Si1797   Si       0.41028    0.23757    0.87724    1.000
    N1798    N        0.43471    0.20533    0.89198    1.000
    N1799    N        0.37510    0.24295    0.90432    1.000
    N1800    N        0.48618    0.23532    0.97820    1.000
    N1801    N        0.31343    0.28512    0.05201    1.000
    Si1802   Si       0.27862    0.27974    0.07744    1.000
    Si1803   Si       0.31310    0.26675    0.01241    1.000
    N1804    N        0.34805    0.26380    0.10227    1.000
    Si1805   Si       0.35231    0.29583    0.06941    1.000
    Si1806   Si       0.23655    0.25558    0.01906    1.000
    N1807    N        0.23729    0.27297    0.06059    1.000
    N1808    N        0.43550    0.26872    0.09054    1.000
    N1809    N        0.44766    0.28431    0.01614    1.000
    N1810    N        0.38704    0.28630    0.04384    1.000
    Si1811   Si       0.42955    0.29340    0.05445    1.000
    Si1812   Si       0.38496    0.26348    0.00571    1.000
    N1813    N        0.24219    0.25131    0.22911    1.000
    Si1814   Si       0.27685    0.26239    0.20384    1.000
    Si1815   Si       0.34458    0.26434    0.14629    1.000
    N1816    N        0.35763    0.29998    0.22740    1.000
    N1817    N        0.26298    0.25143    0.16620    1.000
    Si1818   Si       0.33496    0.26670    0.24543    1.000
    N1819    N        0.29174    0.30397    0.21647    1.000
    Si1820   Si       0.44747    0.28230    0.13330    1.000
    N1821    N        0.47737    0.29480    0.21370    1.000
    N1822    N        0.44263    0.24499    0.15648    1.000
    N1823    N        0.41824    0.26017    0.21711    1.000
    Si1824   Si       0.43549    0.29627    0.20192    1.000
    N1825    N        0.48842    0.29737    0.13743    1.000
    Si1826   Si       0.30213    0.27407    0.32151    1.000
    N1827    N        0.30999    0.27751    0.27932    1.000
    N1828    N        0.33426    0.25650    0.34768    1.000
    N1829    N        0.26616    0.25302    0.32974    1.000
    Si1830   Si       0.43493    0.28454    0.30868    1.000
    N1831    N        0.40462    0.29001    0.27456    1.000
    Si1832   Si       0.40251    0.25126    0.25645    1.000
    N1833    N        0.47291    0.30226    0.28774    1.000
    N1834    N        0.33044    0.24677    0.41202    1.000
    N1835    N        0.28564    0.26486    0.46215    1.000
    Si1836   Si       0.34653    0.27648    0.38558    1.000
    N1837    N        0.27237    0.28073    0.39234    1.000
    Si1838   Si       0.28788    0.25317    0.42154    1.000
    Si1839   Si       0.31794    0.27016    0.49208    1.000
    Si1840   Si       0.25700    0.25754    0.49660    1.000
    Si1841   Si       0.46649    0.26306    0.46334    1.000
    Si1842   Si       0.42161    0.29991    0.38363    1.000
    N1843    N        0.42519    0.28479    0.46073    1.000
    N1844    N        0.38934    0.27061    0.39018    1.000
    N1845    N        0.45906    0.27826    0.38540    1.000
    Si1846   Si       0.30928    0.27999    0.58209    1.000
    N1847    N        0.35139    0.27737    0.57212    1.000
    N1848    N        0.29187    0.25331    0.52315    1.000
    N1849    N        0.34157    0.30206    0.50937    1.000
    N1850    N        0.24655    0.29684    0.50871    1.000
    Si1851   Si       0.36972    0.29360    0.53836    1.000
    Si1852   Si       0.37919    0.25921    0.59961    1.000
    N1853    N        0.39672    0.26399    0.52098    1.000
    N1854    N        0.41039    0.29050    0.60843    1.000
    N1855    N        0.44906    0.25507    0.56340    1.000
    N1856    N        0.46919    0.27789    0.50517    1.000
    Si1857   Si       0.43197    0.29747    0.57289    1.000
    Si1858   Si       0.48559    0.27225    0.54585    1.000
    Si1859   Si       0.42784    0.29611    0.50429    1.000
    N1860    N        0.31274    0.30285    0.62138    1.000
    N1861    N        0.30562    0.26561    0.67941    1.000
    Si1862   Si       0.26272    0.27505    0.68064    1.000
    Si1863   Si       0.33571    0.28520    0.65217    1.000
    N1864    N        0.35808    0.25100    0.63586    1.000
    N1865    N        0.24814    0.27449    0.63719    1.000
    N1866    N        0.46801    0.28434    0.73202    1.000
    Si1867   Si       0.46720    0.28124    0.68798    1.000
    N1868    N        0.36410    0.26484    0.71039    1.000
    N1869    N        0.42461    0.28087    0.67604    1.000
    Si1870   Si       0.39972    0.24805    0.68972    1.000
    Si1871   Si       0.37289    0.29568    0.73892    1.000
    N1872    N        0.30108    0.26343    0.81048    1.000
    Si1873   Si       0.30700    0.27885    0.77093    1.000
    Si1874   Si       0.28175    0.29244    0.83686    1.000
    N1875    N        0.27291    0.26586    0.86871    1.000
    N1876    N        0.24106    0.24843    0.77854    1.000
    Si1877   Si       0.23914    0.29184    0.78081    1.000
    N1878    N        0.24457    0.30832    0.82027    1.000
    N1879    N        0.27327    0.30354    0.75706    1.000
    N1880    N        0.34053    0.30581    0.76949    1.000
    Si1881   Si       0.47628    0.26968    0.80502    1.000
    N1882    N        0.40718    0.28539    0.76335    1.000
    N1883    N        0.48865    0.25226    0.84255    1.000
    Si1884   Si       0.43760    0.25861    0.74943    1.000
    N1885    N        0.42754    0.27644    0.87432    1.000
    N1886    N        0.32542    0.28447    0.91534    1.000
    Si1887   Si       0.28901    0.26350    0.90878    1.000
    N1888    N        0.25971    0.28278    0.93172    1.000
    N1889    N        0.30891    0.29764    0.98300    1.000
    Si1890   Si       0.27042    0.30691    0.96510    1.000
    N1891    N        0.37648    0.28571    0.96656    1.000
    Si1892   Si       0.36889    0.28243    0.92027    1.000
    Si1893   Si       0.47104    0.27257    0.87639    1.000
    N1894    N        0.48418    0.24903    0.91034    1.000
    N1895    N        0.35084    0.33247    0.09292    1.000
    N1896    N        0.28178    0.31634    0.10112    1.000
    Si1897   Si       0.24826    0.33723    0.08427    1.000
    N1898    N        0.35878    0.34708    0.00438    1.000
    N1899    N        0.24118    0.35229    0.04067    1.000
    N1900    N        0.45393    0.32857    0.06256    1.000
    N1901    N        0.33015    0.30398    0.15565    1.000
    Si1902   Si       0.31584    0.33180    0.12330    1.000
    Si1903   Si       0.32933    0.31761    0.19689    1.000
    N1904    N        0.32675    0.36152    0.20173    1.000
    Si1905   Si       0.43045    0.35437    0.15480    1.000
    N1906    N        0.42652    0.31180    0.15962    1.000
    N1907    N        0.42255    0.33321    0.22294    1.000
    N1908    N        0.48352    0.35788    0.24768    1.000
    Si1909   Si       0.32184    0.34489    0.31377    1.000
    N1910    N        0.30513    0.34476    0.27236    1.000
    N1911    N        0.30143    0.31445    0.33745    1.000
    Si1912   Si       0.28556    0.30892    0.25871    1.000
    N1913    N        0.36239    0.34623    0.32296    1.000
    N1914    N        0.24209    0.31810    0.25851    1.000
    Si1915   Si       0.47121    0.34625    0.28674    1.000
    Si1916   Si       0.40425    0.34656    0.32733    1.000
    N1917    N        0.41760    0.30828    0.34147    1.000
    N1918    N        0.42816    0.35793    0.29342    1.000
    Si1919   Si       0.39050    0.32064    0.24846    1.000
    N1920    N        0.37321    0.36182    0.25188    1.000
    N1921    N        0.36001    0.33790    0.45421    1.000
    Si1922   Si       0.34163    0.34240    0.49169    1.000
    Si1923   Si       0.28957    0.31885    0.37854    1.000
    N1924    N        0.26249    0.35209    0.38493    1.000
    Si1925   Si       0.33947    0.35493    0.41948    1.000
    N1926    N        0.32892    0.31584    0.39948    1.000
    N1927    N        0.41599    0.33314    0.41075    1.000
    Si1928   Si       0.40352    0.32327    0.45044    1.000
    N1929    N        0.42113    0.33793    0.48694    1.000
    Si1930   Si       0.27222    0.32568    0.52885    1.000
    N1931    N        0.29841    0.34806    0.49659    1.000
    Si1932   Si       0.30349    0.34443    0.62042    1.000
    N1933    N        0.27678    0.30786    0.56875    1.000
    N1934    N        0.25955    0.34569    0.61943    1.000
    N1935    N        0.24486    0.35967    0.53708    1.000
    Si1936   Si       0.24978    0.30601    0.60529    1.000
    N1937    N        0.46819    0.31536    0.56119    1.000
    N1938    N        0.40211    0.32079    0.54755    1.000
    N1939    N        0.25869    0.31696    0.68976    1.000
    Si1940   Si       0.26883    0.33441    0.72720    1.000
    Si1941   Si       0.35556    0.35269    0.68037    1.000
    N1942    N        0.30336    0.35862    0.73307    1.000
    N1943    N        0.42813    0.34923    0.64138    1.000
    N1944    N        0.37113    0.33754    0.72269    1.000
    Si1945   Si       0.46088    0.35400    0.66795    1.000
    N1946    N        0.36604    0.31613    0.65819    1.000
    N1947    N        0.48220    0.31416    0.66344    1.000
    Si1948   Si       0.40869    0.31044    0.64724    1.000
    N1949    N        0.44463    0.36347    0.70783    1.000
    N1950    N        0.30823    0.32580    0.83429    1.000
    Si1951   Si       0.34438    0.32446    0.81054    1.000
    Si1952   Si       0.34004    0.34744    0.75141    1.000
    Si1953   Si       0.29181    0.36293    0.85079    1.000
    N1954    N        0.34872    0.36351    0.79108    1.000
    N1955    N        0.38391    0.31214    0.82269    1.000
    Si1956   Si       0.40429    0.31024    0.86080    1.000
    N1957    N        0.42781    0.35135    0.76963    1.000
    Si1958   Si       0.41630    0.31534    0.79183    1.000
    N1959    N        0.42741    0.34911    0.85644    1.000
    Si1960   Si       0.46462    0.33429    0.84496    1.000
    N1961    N        0.45091    0.30368    0.81527    1.000
    Si1962   Si       0.46495    0.36334    0.75137    1.000
    Si1963   Si       0.35667    0.35444    0.90448    1.000
    Si1964   Si       0.34672    0.31734    0.97648    1.000
    N1965    N        0.34245    0.35163    0.94530    1.000
    N1966    N        0.25919    0.34873    0.97504    1.000
    N1967    N        0.47784    0.30475    0.95187    1.000
    Si1968   Si       0.48048    0.33405    0.92042    1.000
    N1969    N        0.47955    0.31463    0.87999    1.000
    Si1970   Si       0.46125    0.31661    0.99030    1.000
    N1971    N        0.37871    0.31748    0.89662    1.000
    N1972    N        0.43402    0.35069    0.99717    1.000
    N1973    N        0.31944    0.38491    0.07466    1.000
    Si1974   Si       0.28691    0.39630    0.10484    1.000
    N1975    N        0.24700    0.38161    0.09469    1.000
    Si1976   Si       0.31425    0.41144    0.04181    1.000
    Si1977   Si       0.36233    0.37478    0.08163    1.000
    N1978    N        0.31005    0.39379    0.00104    1.000
    Si1979   Si       0.24087    0.39551    0.04667    1.000
    N1980    N        0.23942    0.40591    0.00130    1.000
    N1981    N        0.37741    0.41245    0.10115    1.000
    N1982    N        0.43435    0.37176    0.11588    1.000
    N1983    N        0.45417    0.39655    0.04849    1.000
    Si1984   Si       0.46763    0.37515    0.01305    1.000
    Si1985   Si       0.43567    0.36570    0.07255    1.000
    Si1986   Si       0.39600    0.36595    0.01217    1.000
    N1987    N        0.39620    0.36816    0.05616    1.000
    N1988    N        0.30198    0.37192    0.13841    1.000
    Si1989   Si       0.34429    0.38646    0.23297    1.000
    N1990    N        0.25835    0.39242    0.20225    1.000
    Si1991   Si       0.29643    0.38512    0.17990    1.000
    N1992    N        0.30924    0.40652    0.25058    1.000
    N1993    N        0.40632    0.39244    0.16728    1.000
    N1994    N        0.36528    0.42160    0.21601    1.000
    Si1995   Si       0.41116    0.40774    0.12762    1.000
    N1996    N        0.46710    0.36566    0.17831    1.000
    Si1997   Si       0.45173    0.36588    0.21933    1.000
    N1998    N        0.42969    0.40174    0.23320    1.000
    N1999    N        0.30173    0.38323    0.32337    1.000
    Si2000   Si       0.28817    0.38348    0.28152    1.000
    N2001    N        0.24663    0.39048    0.27217    1.000
    N2002    N        0.35544    0.42303    0.34658    1.000
    Si2003   Si       0.31177    0.41817    0.34530    1.000
    Si2004   Si       0.44473    0.39666    0.32218    1.000
    Si2005   Si       0.40634    0.38466    0.26537    1.000
    N2006    N        0.42239    0.37587    0.35388    1.000
    N2007    N        0.48373    0.37707    0.31696    1.000
    N2008    N        0.41390    0.41893    0.29300    1.000
    N2009    N        0.24085    0.38812    0.46742    1.000
    N2010    N        0.30202    0.37608    0.43352    1.000
    Si2011   Si       0.27221    0.39105    0.40122    1.000
    Si2012   Si       0.28409    0.38456    0.47382    1.000
    N2013    N        0.29649    0.42246    0.38382    1.000
    Si2014   Si       0.37301    0.42357    0.38703    1.000
    Si2015   Si       0.43985    0.37675    0.49025    1.000
    Si2016   Si       0.41489    0.37580    0.39597    1.000
    N2017    N        0.44931    0.39317    0.41624    1.000
    N2018    N        0.37188    0.38336    0.40396    1.000
    Si2019   Si       0.48205    0.37212    0.43292    1.000
    N2020    N        0.48106    0.37190    0.47612    1.000
    N2021    N        0.41832    0.40906    0.47262    1.000
    Si2022   Si       0.35188    0.40071    0.58828    1.000
    Si2023   Si       0.33697    0.40687    0.51909    1.000
    N2024    N        0.29352    0.41451    0.50477    1.000
    N2025    N        0.36026    0.36956    0.52138    1.000
    N2026    N        0.32293    0.36687    0.58940    1.000
    N2027    N        0.39216    0.38198    0.58526    1.000
    N2028    N        0.43304    0.38773    0.53217    1.000
    N2029    N        0.46075    0.38672    0.59135    1.000
    Si2030   Si       0.45497    0.41475    0.55686    1.000
    Si2031   Si       0.42369    0.38229    0.61428    1.000
    Si2032   Si       0.39707    0.36583    0.54465    1.000
    N2033    N        0.30511    0.42046    0.68904    1.000
    Si2034   Si       0.23805    0.38091    0.62898    1.000
    N2035    N        0.27026    0.41289    0.62858    1.000
    Si2036   Si       0.30836    0.40424    0.64881    1.000
    Si2037   Si       0.29740    0.40284    0.72747    1.000
    N2038    N        0.26270    0.42152    0.73859    1.000
    N2039    N        0.31901    0.36118    0.65908    1.000
    Si2040   Si       0.40417    0.37029    0.72425    1.000
    N2041    N        0.40261    0.41072    0.74112    1.000
    N2042    N        0.38161    0.38703    0.68616    1.000
    N2043    N        0.41371    0.41907    0.63741    1.000
    N2044    N        0.30378    0.39700    0.82843    1.000
    Si2045   Si       0.33381    0.40370    0.79828    1.000
    N2046    N        0.32872    0.41754    0.75499    1.000
    N2047    N        0.24865    0.36670    0.85917    1.000
    N2048    N        0.47578    0.40591    0.75020    1.000
    N2049    N        0.31833    0.36779    0.88774    1.000
    Si2050   Si       0.34765    0.38499    0.97779    1.000
    Si2051   Si       0.31679    0.40113    0.91467    1.000
    N2052    N        0.27716    0.40314    0.93695    1.000
    Si2053   Si       0.27200    0.38897    0.97823    1.000
    N2054    N        0.33849    0.41776    0.94788    1.000
    N2055    N        0.43803    0.41854    0.87844    1.000
    N2056    N        0.38553    0.40373    0.99128    1.000
    Si2057   Si       0.42238    0.37758    0.88659    1.000
    N2058    N        0.38317    0.38984    0.89777    1.000
    N2059    N        0.45413    0.36843    0.91609    1.000
    Si2060   Si       0.47406    0.40686    0.90418    1.000
    N2061    N        0.34337    0.44661    0.05077    1.000
    N2062    N        0.28725    0.43958    0.11348    1.000
    Si2063   Si       0.27664    0.46157    0.07455    1.000
    N2064    N        0.27370    0.42538    0.05266    1.000
    Si2065   Si       0.37732    0.45085    0.07966    1.000
    Si2066   Si       0.44955    0.44084    0.04081    1.000
    N2067    N        0.41076    0.46038    0.05262    1.000
    Si2068   Si       0.46719    0.46489    0.10978    1.000
    N2069    N        0.48004    0.45723    0.06529    1.000
    N2070    N        0.43006    0.44692    0.12245    1.000
    N2071    N        0.27010    0.46855    0.24122    1.000
    N2072    N        0.24795    0.46333    0.16690    1.000
    Si2073   Si       0.34423    0.45554    0.19254    1.000
    Si2074   Si       0.28919    0.45605    0.15407    1.000
    N2075    N        0.30561    0.42932    0.18536    1.000
    Si2076   Si       0.28012    0.42727    0.22409    1.000
    Si2077   Si       0.48639    0.46036    0.18571    1.000
    Si2078   Si       0.40692    0.42568    0.19795    1.000
    N2079    N        0.38364    0.46046    0.17239    1.000
    N2080    N        0.41061    0.47031    0.24025    1.000
    N2081    N        0.44435    0.44834    0.19131    1.000
    N2082    N        0.29086    0.45130    0.32358    1.000
    N2083    N        0.35483    0.46049    0.29017    1.000
    Si2084   Si       0.24967    0.46433    0.32755    1.000
    Si2085   Si       0.31894    0.47889    0.30600    1.000
    Si2086   Si       0.48787    0.45490    0.31244    1.000
    Si2087   Si       0.38168    0.43797    0.31654    1.000
    N2088    N        0.47380    0.45779    0.27019    1.000
    N2089    N        0.45934    0.43531    0.33933    1.000
    Si2090   Si       0.43309    0.45984    0.36140    1.000
    N2091    N        0.40089    0.47238    0.33447    1.000
    Si2092   Si       0.43743    0.43881    0.25682    1.000
    Si2093   Si       0.37143    0.48263    0.25473    1.000
    N2094    N        0.35136    0.43023    0.48381    1.000
    Si2095   Si       0.30698    0.45453    0.41185    1.000
    Si2096   Si       0.32237    0.46409    0.47858    1.000
    N2097    N        0.34919    0.44817    0.41242    1.000
    N2098    N        0.28878    0.45818    0.45146    1.000
    Si2099   Si       0.24809    0.47124    0.46532    1.000
    N2100    N        0.47284    0.44766    0.45961    1.000
    Si2101   Si       0.37363    0.47862    0.43097    1.000
    N2102    N        0.40921    0.46697    0.45414    1.000
    Si2103   Si       0.43489    0.43098    0.43702    1.000
    Si2104   Si       0.39297    0.44186    0.48554    1.000
    N2105    N        0.41303    0.43854    0.39392    1.000
    Si2106   Si       0.27616    0.44781    0.52630    1.000
    Si2107   Si       0.34988    0.46710    0.54525    1.000
    Si2108   Si       0.25684    0.44372    0.60179    1.000
    N2109    N        0.25575    0.42960    0.55981    1.000
    N2110    N        0.31340    0.47600    0.52073    1.000
    N2111    N        0.33990    0.42631    0.55657    1.000
    N2112    N        0.43176    0.44614    0.57236    1.000
    Si2113   Si       0.42067    0.45580    0.61368    1.000
    N2114    N        0.38762    0.46313    0.52608    1.000
    Si2115   Si       0.48498    0.45787    0.50051    1.000
    N2116    N        0.49015    0.42666    0.53055    1.000
    Si2117   Si       0.42175    0.48043    0.54550    1.000
    N2118    N        0.38496    0.47901    0.61905    1.000
    N2119    N        0.25339    0.47378    0.68915    1.000
    Si2120   Si       0.35278    0.46029    0.64313    1.000
    Si2121   Si       0.29472    0.46232    0.68869    1.000
    N2122    N        0.33969    0.42215    0.62594    1.000
    N2123    N        0.45302    0.47772    0.63193    1.000
    N2124    N        0.38021    0.47585    0.74469    1.000
    N2125    N        0.37042    0.45661    0.68233    1.000
    N2126    N        0.44152    0.44176    0.69504    1.000
    Si2127   Si       0.40183    0.42518    0.68000    1.000
    Si2128   Si       0.46763    0.46668    0.67184    1.000
    Si2129   Si       0.44096    0.43088    0.73784    1.000
    N2130    N        0.29727    0.45962    0.80782    1.000
    Si2131   Si       0.27024    0.44657    0.77596    1.000
    Si2132   Si       0.27665    0.43072    0.83764    1.000
    N2133    N        0.24615    0.42655    0.80411    1.000
    N2134    N        0.24969    0.48038    0.75587    1.000
    N2135    N        0.36691    0.43063    0.80274    1.000
    Si2136   Si       0.37070    0.43593    0.76047    1.000
    Si2137   Si       0.37941    0.46119    0.82946    1.000
    Si2138   Si       0.45360    0.44672    0.84857    1.000
    N2139    N        0.42105    0.46344    0.82491    1.000
    N2140    N        0.45234    0.46200    0.76643    1.000
    N2141    N        0.47945    0.42381    0.82235    1.000
    N2142    N        0.24987    0.43416    0.87156    1.000
    N2143    N        0.28533    0.46959    0.94291    1.000
    Si2144   Si       0.32411    0.45655    0.95536    1.000
    N2145    N        0.30737    0.43767    0.89114    1.000
    Si2146   Si       0.26640    0.44005    0.91140    1.000
    Si2147   Si       0.33443    0.47393    0.88872    1.000
    Si2148   Si       0.24817    0.48121    0.96137    1.000
    N2149    N        0.37225    0.45610    0.87297    1.000
    N2150    N        0.40663    0.44663    0.93488    1.000
    Si2151   Si       0.39527    0.43150    0.89658    1.000
    Si2152   Si       0.40920    0.43685    0.97783    1.000
    Si2153   Si       0.48410    0.43799    0.97010    1.000
    N2154    N        0.48561    0.44141    0.92617    1.000
    N2155    N        0.44901    0.44184    0.99759    1.000
    N2156    N        0.29662    0.49522    0.05417    1.000
    N2157    N        0.31621    0.52448    0.11020    1.000
    Si2158   Si       0.33346    0.48616    0.03082    1.000
    Si2159   Si       0.29675    0.53390    0.07295    1.000
    N2160    N        0.36757    0.51304    0.03976    1.000
    Si2161   Si       0.40411    0.49369    0.02465    1.000
    N2162    N        0.44122    0.51907    0.02781    1.000
    N2163    N        0.45649    0.50659    0.10498    1.000
    Si2164   Si       0.45984    0.52817    0.06691    1.000
    N2165    N        0.37248    0.48194    0.11101    1.000
    Si2166   Si       0.34576    0.50809    0.13344    1.000
    Si2167   Si       0.30124    0.50217    0.24040    1.000
    N2168    N        0.33814    0.48360    0.22674    1.000
    N2169    N        0.32194    0.48293    0.16030    1.000
    N2170    N        0.24872    0.53612    0.18162    1.000
    N2171    N        0.41426    0.53274    0.21952    1.000
    N2172    N        0.42830    0.51007    0.16294    1.000
    N2173    N        0.36819    0.53513    0.15836    1.000
    Si2174   Si       0.43345    0.49339    0.20778    1.000
    N2175    N        0.47633    0.49819    0.21274    1.000
    Si2176   Si       0.40634    0.47931    0.13982    1.000
    N2177    N        0.33655    0.50949    0.33558    1.000
    N2178    N        0.30202    0.51120    0.28311    1.000
    N2179    N        0.23993    0.49620    0.35813    1.000
    N2180    N        0.38138    0.51904    0.27712    1.000
    Si2181   Si       0.37794    0.50734    0.31898    1.000
    N2182    N        0.39996    0.53737    0.33872    1.000
    Si2183   Si       0.48633    0.53482    0.34317    1.000
    N2184    N        0.24001    0.50587    0.43748    1.000
    Si2185   Si       0.33593    0.51356    0.37868    1.000
    N2186    N        0.29912    0.49578    0.39347    1.000
    Si2187   Si       0.25746    0.51029    0.39546    1.000
    N2188    N        0.34617    0.49671    0.45965    1.000
    Si2189   Si       0.36174    0.53569    0.47483    1.000
    N2190    N        0.40296    0.53125    0.48462    1.000
    N2191    N        0.37352    0.50784    0.39862    1.000
    Si2192   Si       0.40831    0.52552    0.38108    1.000
    Si2193   Si       0.47139    0.50441    0.41141    1.000
    N2194    N        0.45461    0.52418    0.44662    1.000
    Si2195   Si       0.43253    0.50037    0.47438    1.000
    N2196    N        0.44169    0.49875    0.38186    1.000
    Si2197   Si       0.31588    0.51662    0.53721    1.000
    N2198    N        0.34857    0.50519    0.56750    1.000
    N2199    N        0.27701    0.53416    0.54485    1.000
    N2200    N        0.27239    0.48361    0.59857    1.000
    N2201    N        0.24792    0.47902    0.50724    1.000
    Si2202   Si       0.24036    0.52383    0.52386    1.000
    Si2203   Si       0.45797    0.51386    0.60309    1.000
    Si2204   Si       0.38353    0.51442    0.59344    1.000
    N2205    N        0.42322    0.51208    0.57412    1.000
    Si2206   Si       0.48053    0.51825    0.52943    1.000
    N2207    N        0.45025    0.48889    0.51229    1.000
    N2208    N        0.31249    0.48299    0.72588    1.000
    Si2209   Si       0.35367    0.48641    0.71243    1.000
    Si2210   Si       0.29500    0.50468    0.62706    1.000
    N2211    N        0.25648    0.52675    0.64362    1.000
    Si2212   Si       0.24536    0.51508    0.68499    1.000
    N2213    N        0.26981    0.53531    0.71495    1.000
    Si2214   Si       0.28513    0.50844    0.74605    1.000
    N2215    N        0.31621    0.48052    0.65461    1.000
    Si2216   Si       0.40056    0.51720    0.74091    1.000
    N2217    N        0.47647    0.50131    0.69693    1.000
    N2218    N        0.36314    0.52895    0.71650    1.000
    Si2219   Si       0.31501    0.49746    0.81781    1.000
    N2220    N        0.29655    0.52407    0.78703    1.000
    N2221    N        0.35889    0.49586    0.81481    1.000
    N2222    N        0.31510    0.50144    0.86130    1.000
    N2223    N        0.25896    0.53268    0.84472    1.000
    N2224    N        0.47416    0.48297    0.86762    1.000
    N2225    N        0.41298    0.52586    0.85168    1.000
    Si2226   Si       0.43974    0.49006    0.79671    1.000
    N2227    N        0.41008    0.51976    0.78325    1.000
    N2228    N        0.47415    0.51583    0.80784    1.000
    Si2229   Si       0.38769    0.52896    0.81758    1.000
    N2230    N        0.24206    0.52218    0.95215    1.000
    N2231    N        0.32594    0.48790    0.98657    1.000
    Si2232   Si       0.33032    0.51920    0.95442    1.000
    N2233    N        0.30349    0.53499    0.92133    1.000
    Si2234   Si       0.29129    0.53603    0.87817    1.000
    N2235    N        0.34861    0.48453    0.92913    1.000
    Si2236   Si       0.38932    0.48715    0.94337    1.000
    N2237    N        0.41562    0.50950    0.91966    1.000
    Si2238   Si       0.44109    0.51287    0.88269    1.000
    N2239    N        0.37116    0.53958    0.95617    1.000
    N2240    N        0.39579    0.47856    0.98596    1.000
    N2241    N        0.32311    0.56646    0.05704    1.000
    N2242    N        0.26623    0.56605    0.08372    1.000
    Si2243   Si       0.29535    0.58929    0.99724    1.000
    Si2244   Si       0.36556    0.55500    0.05364    1.000
    N2245    N        0.45781    0.56684    0.08946    1.000
    N2246    N        0.37975    0.57424    0.01834    1.000
    N2247    N        0.39081    0.56148    0.08766    1.000
    Si2248   Si       0.42143    0.58540    0.10435    1.000
    N2249    N        0.45064    0.58246    0.01406    1.000
    Si2250   Si       0.28401    0.55979    0.19046    1.000
    N2251    N        0.30959    0.58004    0.16353    1.000
    Si2252   Si       0.35417    0.57647    0.15932    1.000
    N2253    N        0.30296    0.54329    0.22711    1.000
    N2254    N        0.25861    0.59452    0.20871    1.000
    N2255    N        0.48757    0.54697    0.16002    1.000
    Si2256   Si       0.40528    0.54902    0.17849    1.000
    N2257    N        0.38323    0.58509    0.19180    1.000
    N2258    N        0.42890    0.57407    0.14586    1.000
    Si2259   Si       0.45247    0.53620    0.13600    1.000
    N2260    N        0.28218    0.56122    0.33830    1.000
    N2261    N        0.33260    0.57320    0.29016    1.000
    Si2262   Si       0.25233    0.58025    0.31459    1.000
    N2263    N        0.26662    0.58391    0.27481    1.000
    Si2264   Si       0.30659    0.57716    0.25534    1.000
    Si2265   Si       0.31264    0.54239    0.31348    1.000
    N2266    N        0.44235    0.55339    0.28447    1.000
    Si2267   Si       0.42405    0.56905    0.32121    1.000
    N2268    N        0.45887    0.56824    0.34853    1.000
    Si2269   Si       0.40850    0.54743    0.25918    1.000
    Si2270   Si       0.48194    0.57035    0.27601    1.000
    N2271    N        0.39378    0.58944    0.25798    1.000
    N2272    N        0.24386    0.54956    0.48925    1.000
    Si2273   Si       0.29097    0.57369    0.38090    1.000
    N2274    N        0.33199    0.55711    0.38655    1.000
    N2275    N        0.26044    0.55450    0.40407    1.000
    Si2276   Si       0.24388    0.55451    0.44344    1.000
    N2277    N        0.36291    0.57393    0.45249    1.000
    Si2278   Si       0.24459    0.59411    0.49644    1.000
    Si2279   Si       0.44554    0.59092    0.38226    1.000
    N2280    N        0.41538    0.56333    0.40210    1.000
    Si2281   Si       0.36746    0.57362    0.40899    1.000
    Si2282   Si       0.44242    0.56549    0.43652    1.000
    N2283    N        0.43092    0.58938    0.46933    1.000
    N2284    N        0.47524    0.58770    0.41467    1.000
    Si2285   Si       0.28446    0.57549    0.55682    1.000
    N2286    N        0.32992    0.58219    0.56939    1.000
    Si2287   Si       0.34386    0.56723    0.61065    1.000
    Si2288   Si       0.35559    0.57779    0.53242    1.000
    N2289    N        0.27045    0.58698    0.59496    1.000
    N2290    N        0.33830    0.54329    0.51076    1.000
    N2291    N        0.39849    0.58512    0.53134    1.000
    N2292    N        0.46320    0.55740    0.51901    1.000
    N2293    N        0.38527    0.55501    0.60858    1.000
    Si2294   Si       0.42347    0.56228    0.50399    1.000
    Si2295   Si       0.42335    0.57944    0.61308    1.000
    Si2296   Si       0.48357    0.59577    0.51405    1.000
    N2297    N        0.31125    0.54323    0.62233    1.000
    N2298    N        0.28997    0.58918    0.66958    1.000
    Si2299   Si       0.28066    0.57645    0.71172    1.000
    Si2300   Si       0.34983    0.56818    0.72734    1.000
    Si2301   Si       0.27507    0.56749    0.63497    1.000
    N2302    N        0.31184    0.58456    0.74195    1.000
    N2303    N        0.35719    0.59401    0.69337    1.000
    N2304    N        0.43199    0.54522    0.72598    1.000
    N2305    N        0.45714    0.55233    0.62451    1.000
    Si2306   Si       0.42187    0.57976    0.75209    1.000
    Si2307   Si       0.47269    0.54394    0.71075    1.000
    Si2308   Si       0.26468    0.54996    0.80542    1.000
    N2309    N        0.27389    0.59123    0.80679    1.000
    N2310    N        0.30576    0.57822    0.86771    1.000
    Si2311   Si       0.26069    0.58922    0.86911    1.000
    Si2312   Si       0.48382    0.55294    0.78581    1.000
    N2313    N        0.38149    0.57205    0.82444    1.000
    N2314    N        0.44995    0.58013    0.78471    1.000
    N2315    N        0.37761    0.58165    0.75806    1.000
    Si2316   Si       0.41194    0.57017    0.85915    1.000
    N2317    N        0.31449    0.55304    0.98096    1.000
    Si2318   Si       0.27250    0.55626    0.94228    1.000
    N2319    N        0.25294    0.56241    0.90328    1.000
    Si2320   Si       0.35582    0.57404    0.98071    1.000
    N2321    N        0.26536    0.59162    0.96652    1.000
    Si2322   Si       0.46034    0.54450    0.99516    1.000
    N2323    N        0.39428    0.57561    0.90001    1.000
    N2324    N        0.45651    0.55354    0.88968    1.000
    N2325    N        0.44454    0.55513    0.95635    1.000
    Si2326   Si       0.46967    0.57251    0.92405    1.000
    Si2327   Si       0.40631    0.55106    0.93361    1.000
    N2328    N        0.39425    0.59821    0.96026    1.000
    N2329    N        0.29262    0.62731    0.09623    1.000
    N2330    N        0.27624    0.60912    0.03014    1.000
    Si2331   Si       0.25945    0.64701    0.02182    1.000
    Si2332   Si       0.35673    0.64596    0.00463    1.000
    Si2333   Si       0.29175    0.59708    0.06780    1.000
    N2334    N        0.42275    0.62897    0.09921    1.000
    N2335    N        0.39767    0.63925    0.01281    1.000
    Si2336   Si       0.48111    0.61282    0.01250    1.000
    Si2337   Si       0.41176    0.59810    0.00091    1.000
    N2338    N        0.35328    0.61201    0.13358    1.000
    Si2339   Si       0.31037    0.61636    0.13747    1.000
    Si2340   Si       0.28890    0.62787    0.20509    1.000
    N2341    N        0.29424    0.64555    0.16624    1.000
    N2342    N        0.31911    0.61474    0.23463    1.000
    Si2343   Si       0.34612    0.64885    0.24318    1.000
    N2344    N        0.26167    0.66246    0.22030    1.000
    N2345    N        0.48358    0.61876    0.15699    1.000
    N2346    N        0.41312    0.64438    0.16369    1.000
    N2347    N        0.44607    0.60913    0.21312    1.000
    Si2348   Si       0.40180    0.61001    0.22116    1.000
    Si2349   Si       0.44122    0.61155    0.16957    1.000
    N2350    N        0.38458    0.65089    0.22142    1.000
    Si2351   Si       0.38876    0.63950    0.12785    1.000
    Si2352   Si       0.48550    0.61063    0.22961    1.000
    N2353    N        0.35518    0.64249    0.28568    1.000
    Si2354   Si       0.25390    0.63538    0.36712    1.000
    Si2355   Si       0.36772    0.60170    0.29197    1.000
    Si2356   Si       0.39159    0.62745    0.35879    1.000
    N2357    N        0.48140    0.61548    0.27217    1.000
    N2358    N        0.39832    0.60318    0.32406    1.000
    Si2359   Si       0.47787    0.65825    0.28432    1.000
    Si2360   Si       0.24460    0.64021    0.43844    1.000
    N2361    N        0.29147    0.61626    0.38694    1.000
    N2362    N        0.33587    0.63517    0.44252    1.000
    Si2363   Si       0.32751    0.63591    0.39937    1.000
    N2364    N        0.25123    0.59986    0.45338    1.000
    Si2365   Si       0.36354    0.61340    0.47193    1.000
    N2366    N        0.36346    0.61338    0.38820    1.000
    Si2367   Si       0.43641    0.63116    0.47957    1.000
    N2368    N        0.42826    0.62971    0.38111    1.000
    N2369    N        0.45635    0.64873    0.44573    1.000
    N2370    N        0.39507    0.64442    0.48191    1.000
    Si2371   Si       0.33920    0.62301    0.58510    1.000
    Si2372   Si       0.30478    0.63467    0.52253    1.000
    N2373    N        0.33946    0.61257    0.50948    1.000
    N2374    N        0.27478    0.60378    0.52459    1.000
    N2375    N        0.31660    0.65265    0.55978    1.000
    N2376    N        0.45517    0.63026    0.51978    1.000
    N2377    N        0.38417    0.62624    0.57953    1.000
    Si2378   Si       0.41789    0.61966    0.55114    1.000
    Si2379   Si       0.48634    0.61897    0.58332    1.000
    N2380    N        0.44455    0.60618    0.58263    1.000
    N2381    N        0.33711    0.60839    0.62691    1.000
    Si2382   Si       0.32589    0.61380    0.66826    1.000
    N2383    N        0.24665    0.60306    0.71550    1.000
    N2384    N        0.25115    0.65169    0.66389    1.000
    Si2385   Si       0.42712    0.64491    0.64853    1.000
    N2386    N        0.41694    0.60163    0.64927    1.000
    N2387    N        0.39321    0.65290    0.67524    1.000
    N2388    N        0.46435    0.65016    0.67273    1.000
    Si2389   Si       0.46192    0.63633    0.71526    1.000
    N2390    N        0.42341    0.61321    0.71968    1.000
    Si2391   Si       0.39697    0.60914    0.68621    1.000
    N2392    N        0.33770    0.62871    0.79810    1.000
    Si2393   Si       0.30389    0.60881    0.77750    1.000
    N2394    N        0.27486    0.64168    0.77112    1.000
    N2395    N        0.34378    0.65119    0.86207    1.000
    N2396    N        0.40434    0.62974    0.78662    1.000
    N2397    N        0.47409    0.64208    0.80228    1.000
    Si2398   Si       0.44122    0.61590    0.80755    1.000
    N2399    N        0.43478    0.60630    0.84862    1.000
    Si2400   Si       0.37223    0.60271    0.79447    1.000
    Si2401   Si       0.40629    0.64681    0.74665    1.000
    Si2402   Si       0.31675    0.61963    0.88154    1.000
    N2403    N        0.27477    0.62986    0.88201    1.000
    Si2404   Si       0.32110    0.63568    0.95072    1.000
    N2405    N        0.33961    0.61566    0.91817    1.000
    N2406    N        0.33322    0.61386    0.98836    1.000
    Si2407   Si       0.25127    0.65257    0.91126    1.000
    N2408    N        0.28579    0.65662    0.93800    1.000
    Si2409   Si       0.48380    0.63309    0.95279    1.000
    N2410    N        0.46184    0.61651    0.91935    1.000
    Si2411   Si       0.38346    0.61194    0.92100    1.000
    N2412    N        0.45834    0.64055    0.98816    1.000
    Si2413   Si       0.44183    0.63063    0.88303    1.000
    N2414    N        0.40449    0.64321    0.90027    1.000
    N2415    N        0.31273    0.69893    0.08330    1.000
    Si2416   Si       0.30507    0.69172    0.03611    1.000
    Si2417   Si       0.35322    0.68495    0.07687    1.000
    Si2418   Si       0.27998    0.66955    0.09421    1.000
    N2419    N        0.26122    0.67497    0.05500    1.000
    N2420    N        0.33965    0.66414    0.03988    1.000
    N2421    N        0.28345    0.67376    0.00027    1.000
    N2422    N        0.37122    0.67579    0.11471    1.000
    Si2423   Si       0.43168    0.66633    0.01093    1.000
    N2424    N        0.45557    0.67441    0.04747    1.000
    Si2425   Si       0.44990    0.66294    0.09092    1.000
    N2426    N        0.43809    0.69560    0.11513    1.000
    Si2427   Si       0.39691    0.70929    0.11135    1.000
    Si2428   Si       0.49137    0.69770    0.03007    1.000
    N2429    N        0.25917    0.68435    0.13097    1.000
    Si2430   Si       0.26609    0.67932    0.17310    1.000
    N2431    N        0.32163    0.68477    0.24248    1.000
    Si2432   Si       0.33032    0.70981    0.20693    1.000
    N2433    N        0.29559    0.71313    0.18128    1.000
    N2434    N        0.43758    0.70166    0.19234    1.000
    Si2435   Si       0.46211    0.70834    0.22936    1.000
    N2436    N        0.36552    0.70625    0.18159    1.000
    Si2437   Si       0.40003    0.67637    0.19003    1.000
    Si2438   Si       0.45545    0.71093    0.15199    1.000
    Si2439   Si       0.28259    0.69755    0.32260    1.000
    N2440    N        0.27156    0.67445    0.35983    1.000
    N2441    N        0.26941    0.67301    0.29054    1.000
    N2442    N        0.32596    0.70284    0.31856    1.000
    Si2443   Si       0.27871    0.68703    0.25232    1.000
    Si2444   Si       0.35876    0.67682    0.31105    1.000
    N2445    N        0.44466    0.67795    0.30443    1.000
    N2446    N        0.37507    0.66525    0.34793    1.000
    Si2447   Si       0.46744    0.69223    0.34017    1.000
    N2448    N        0.48709    0.67641    0.24430    1.000
    N2449    N        0.38572    0.71078    0.30521    1.000
    Si2450   Si       0.26257    0.68702    0.48839    1.000
    Si2451   Si       0.31856    0.67319    0.45493    1.000
    N2452    N        0.33104    0.68014    0.39575    1.000
    Si2453   Si       0.28870    0.69014    0.39676    1.000
    N2454    N        0.28173    0.66650    0.43293    1.000
    N2455    N        0.34516    0.70778    0.45917    1.000
    N2456    N        0.29968    0.66775    0.49500    1.000
    Si2457   Si       0.43577    0.66542    0.40801    1.000
    N2458    N        0.46572    0.68604    0.38316    1.000
    Si2459   Si       0.36899    0.69412    0.38115    1.000
    N2460    N        0.39977    0.69052    0.41197    1.000
    N2461    N        0.40893    0.70851    0.48091    1.000
    Si2462   Si       0.33032    0.69442    0.56014    1.000
    N2463    N        0.25003    0.69368    0.52767    1.000
    N2464    N        0.35693    0.69843    0.52456    1.000
    N2465    N        0.36093    0.69569    0.59145    1.000
    Si2466   Si       0.45859    0.67034    0.53977    1.000
    Si2467   Si       0.39389    0.66780    0.58737    1.000
    Si2468   Si       0.39330    0.68033    0.50896    1.000
    N2469    N        0.41440    0.66905    0.54743    1.000
    N2470    N        0.46638    0.71114    0.52516    1.000
    N2471    N        0.48667    0.66085    0.57296    1.000
    N2472    N        0.42018    0.67764    0.62056    1.000
    N2473    N        0.27372    0.70068    0.63061    1.000
    Si2474   Si       0.28659    0.67998    0.66792    1.000
    Si2475   Si       0.35958    0.67276    0.69341    1.000
    Si2476   Si       0.23756    0.67617    0.63010    1.000
    N2477    N        0.35648    0.71706    0.69024    1.000
    N2478    N        0.32110    0.65540    0.67894    1.000
    N2479    N        0.44384    0.66955    0.73682    1.000
    N2480    N        0.36969    0.66816    0.73646    1.000
    Si2481   Si       0.45719    0.70740    0.72025    1.000
    Si2482   Si       0.42594    0.71332    0.64431    1.000
    Si2483   Si       0.27382    0.67825    0.79454    1.000
    N2484    N        0.30668    0.69347    0.81785    1.000
    Si2485   Si       0.34369    0.66708    0.81911    1.000
    Si2486   Si       0.36333    0.70516    0.75902    1.000
    N2487    N        0.25845    0.70867    0.76828    1.000
    N2488    N        0.24255    0.66264    0.82168    1.000
    N2489    N        0.37249    0.69248    0.79967    1.000
    N2490    N        0.40797    0.69730    0.85803    1.000
    N2491    N        0.35025    0.66933    0.96523    1.000
    Si2492   Si       0.34661    0.70795    0.94698    1.000
    Si2493   Si       0.27898    0.69375    0.96277    1.000
    N2494    N        0.36030    0.70516    0.90547    1.000
    N2495    N        0.46641    0.66460    0.86965    1.000
    Si2496   Si       0.44582    0.70117    0.88026    1.000
    N2497    N        0.48775    0.70307    0.98534    1.000
    N2498    N        0.41924    0.70047    0.98961    1.000
    Si2499   Si       0.37764    0.67432    0.88213    1.000
    N2500    N        0.31046    0.73147    0.02097    1.000
    Si2501   Si       0.31019    0.77122    0.03970    1.000
    Si2502   Si       0.37962    0.76274    0.06796    1.000
    N2503    N        0.38172    0.71963    0.07065    1.000
    N2504    N        0.38705    0.76660    0.02464    1.000
    N2505    N        0.48486    0.73811    0.04129    1.000
    Si2506   Si       0.29549    0.75981    0.24072    1.000
    Si2507   Si       0.28613    0.75196    0.16597    1.000
    N2508    N        0.32231    0.76262    0.14222    1.000
    N2509    N        0.25186    0.75334    0.14056    1.000
    N2510    N        0.33460    0.74695    0.22959    1.000
    Si2511   Si       0.35984    0.74640    0.15868    1.000
    N2512    N        0.46137    0.75426    0.14035    1.000
    N2513    N        0.39238    0.74554    0.13164    1.000
    Si2514   Si       0.35537    0.73714    0.32674    1.000
    N2515    N        0.25799    0.73217    0.32821    1.000
    Si2516   Si       0.26624    0.75533    0.36425    1.000
    N2517    N        0.26294    0.72843    0.24957    1.000
    N2518    N        0.43786    0.72789    0.25958    1.000
    N2519    N        0.45823    0.73334    0.33565    1.000
    N2520    N        0.37209    0.73452    0.36640    1.000
    Si2521   Si       0.42923    0.76976    0.25748    1.000
    Si2522   Si       0.44693    0.77497    0.33621    1.000
    Si2523   Si       0.42712    0.71925    0.30192    1.000
    N2524    N        0.26015    0.72260    0.46584    1.000
    Si2525   Si       0.27020    0.76162    0.48634    1.000
    N2526    N        0.27166    0.73108    0.40058    1.000
    Si2527   Si       0.24438    0.74329    0.43173    1.000
    Si2528   Si       0.44362    0.73157    0.49336    1.000
    N2529    N        0.45629    0.76025    0.46300    1.000
    N2530    N        0.38724    0.75826    0.43194    1.000
    Si2531   Si       0.38597    0.76930    0.38951    1.000
    Si2532   Si       0.38559    0.71562    0.44354    1.000
    Si2533   Si       0.25552    0.73509    0.55245    1.000
    Si2534   Si       0.28696    0.73456    0.60714    1.000
    N2535    N        0.26557    0.76927    0.58861    1.000
    N2536    N        0.29483    0.71913    0.56579    1.000
    N2537    N        0.24208    0.75863    0.51872    1.000
    N2538    N        0.30877    0.75146    0.50176    1.000
    Si2539   Si       0.36233    0.73529    0.60750    1.000
    Si2540   Si       0.34438    0.72842    0.49704    1.000
    N2541    N        0.45644    0.76936    0.58740    1.000
    N2542    N        0.37141    0.75673    0.57125    1.000
    Si2543   Si       0.46747    0.74972    0.55015    1.000
    N2544    N        0.43329    0.76444    0.52171    1.000
    Si2545   Si       0.48435    0.74954    0.61461    1.000
    N2546    N        0.37022    0.76502    0.50035    1.000
    N2547    N        0.24314    0.76453    0.66371    1.000
    N2548    N        0.32537    0.74727    0.62488    1.000
    Si2549   Si       0.32004    0.73551    0.70440    1.000
    N2550    N        0.27581    0.76528    0.73352    1.000
    Si2551   Si       0.25194    0.74650    0.70108    1.000
    N2552    N        0.28225    0.71451    0.69485    1.000
    N2553    N        0.42890    0.71646    0.68761    1.000
    Si2554   Si       0.39299    0.73731    0.69904    1.000
    N2555    N        0.46822    0.71770    0.63808    1.000
    N2556    N        0.39472    0.73472    0.74199    1.000
    N2557    N        0.39467    0.74239    0.63559    1.000
    Si2558   Si       0.28922    0.74068    0.76568    1.000
    N2559    N        0.25481    0.72704    0.84129    1.000
    Si2560   Si       0.29770    0.73257    0.83786    1.000
    N2561    N        0.28507    0.76508    0.80358    1.000
    Si2562   Si       0.24251    0.76243    0.82181    1.000
    N2563    N        0.32623    0.72615    0.74906    1.000
    N2564    N        0.36981    0.74827    0.84336    1.000
    Si2565   Si       0.45040    0.76709    0.83386    1.000
    N2566    N        0.41915    0.75312    0.80796    1.000
    Si2567   Si       0.42783    0.75327    0.76505    1.000
    N2568    N        0.46524    0.73681    0.86356    1.000
    N2569    N        0.46404    0.73208    0.75427    1.000
    N2570    N        0.48602    0.76890    0.80914    1.000
    Si2571   Si       0.39567    0.72013    0.82382    1.000
    N2572    N        0.31339    0.74388    0.87796    1.000
    N2573    N        0.25476    0.75585    0.91414    1.000
    Si2574   Si       0.29666    0.75297    0.91738    1.000
    Si2575   Si       0.35609    0.74466    0.88429    1.000
    N2576    N        0.30557    0.71981    0.94251    1.000
    N2577    N        0.36737    0.73893    0.96593    1.000
    Si2578   Si       0.39875    0.73918    0.99509    1.000
    Si2579   Si       0.48125    0.74777    0.90532    1.000
    N2580    N        0.43516    0.75824    0.97954    1.000
    Si2581   Si       0.45157    0.72004    0.96513    1.000
    N2582    N        0.38050    0.76994    0.90704    1.000
    N2583    N        0.45214    0.71515    0.92202    1.000
    N2584    N        0.32376    0.80320    0.01058    1.000
    Si2585   Si       0.32461    0.79454    0.11034    1.000
    Si2586   Si       0.26401    0.82157    0.07272    1.000
    N2587    N        0.28949    0.81953    0.10820    1.000
    N2588    N        0.27019    0.78088    0.04734    1.000
    N2589    N        0.33829    0.77778    0.07332    1.000
    Si2590   Si       0.36778    0.80447    0.01097    1.000
    Si2591   Si       0.42422    0.81815    0.05809    1.000
    N2592    N        0.46140    0.81059    0.03558    1.000
    N2593    N        0.41499    0.78305    0.08305    1.000
    N2594    N        0.38961    0.83368    0.03615    1.000
    N2595    N        0.35481    0.82542    0.12130    1.000
    Si2596   Si       0.35786    0.78306    0.22380    1.000
    N2597    N        0.33707    0.82184    0.23172    1.000
    Si2598   Si       0.24927    0.80615    0.20750    1.000
    N2599    N        0.28185    0.77744    0.20332    1.000
    Si2600   Si       0.37756    0.81870    0.15815    1.000
    N2601    N        0.41754    0.81690    0.14003    1.000
    N2602    N        0.37135    0.78327    0.18212    1.000
    Si2603   Si       0.42452    0.77538    0.12526    1.000
    N2604    N        0.45587    0.79828    0.24316    1.000
    N2605    N        0.29573    0.78867    0.27285    1.000
    N2606    N        0.26868    0.81845    0.32354    1.000
    Si2607   Si       0.30757    0.79296    0.31463    1.000
    N2608    N        0.34919    0.77744    0.31141    1.000
    Si2609   Si       0.30034    0.82815    0.25245    1.000
    N2610    N        0.30232    0.77658    0.35945    1.000
    Si2611   Si       0.38393    0.79434    0.29468    1.000
    N2612    N        0.47944    0.79835    0.32303    1.000
    N2613    N        0.38837    0.78431    0.25398    1.000
    N2614    N        0.41945    0.77031    0.30397    1.000
    Si2615   Si       0.31932    0.80850    0.38020    1.000
    Si2616   Si       0.24625    0.81747    0.47566    1.000
    N2617    N        0.25403    0.78162    0.45089    1.000
    N2618    N        0.34356    0.80835    0.46571    1.000
    N2619    N        0.36246    0.80530    0.38558    1.000
    N2620    N        0.30300    0.83231    0.41136    1.000
    Si2621   Si       0.38041    0.78731    0.46375    1.000
    N2622    N        0.47824    0.82197    0.48425    1.000
    N2623    N        0.41304    0.81446    0.47506    1.000
    Si2624   Si       0.44680    0.79370    0.49187    1.000
    N2625    N        0.42760    0.78667    0.37624    1.000
    Si2626   Si       0.45473    0.80836    0.40114    1.000
    Si2627   Si       0.26217    0.81060    0.60019    1.000
    N2628    N        0.33598    0.81369    0.53821    1.000
    Si2629   Si       0.32646    0.79123    0.50252    1.000
    N2630    N        0.28242    0.80978    0.50009    1.000
    Si2631   Si       0.29586    0.83080    0.53546    1.000
    N2632    N        0.40700    0.81367    0.55604    1.000
    Si2633   Si       0.43887    0.80792    0.58706    1.000
    Si2634   Si       0.39224    0.77330    0.53858    1.000
    N2635    N        0.28986    0.81327    0.63369    1.000
    Si2636   Si       0.29647    0.79985    0.72045    1.000
    Si2637   Si       0.32145    0.78648    0.64514    1.000
    N2638    N        0.32016    0.77810    0.68968    1.000
    N2639    N        0.35791    0.80809    0.63564    1.000
    N2640    N        0.27220    0.83017    0.69887    1.000
    Si2641   Si       0.41795    0.80730    0.71177    1.000
    Si2642   Si       0.39502    0.78633    0.64572    1.000
    N2643    N        0.45063    0.83611    0.69489    1.000
    N2644    N        0.42395    0.81392    0.63002    1.000
    N2645    N        0.39660    0.77908    0.68847    1.000
    Si2646   Si       0.30630    0.80433    0.80174    1.000
    N2647    N        0.34472    0.80296    0.82186    1.000
    N2648    N        0.31721    0.81316    0.75684    1.000
    N2649    N        0.27823    0.83036    0.82757    1.000
    N2650    N        0.42339    0.79461    0.85485    1.000
    Si2651   Si       0.38734    0.78511    0.82430    1.000
    N2652    N        0.40111    0.82237    0.80529    1.000
    N2653    N        0.43290    0.79408    0.75002    1.000
    Si2654   Si       0.42189    0.83207    0.77008    1.000
    N2655    N        0.32089    0.78427    0.93432    1.000
    Si2656   Si       0.24579    0.79448    0.89556    1.000
    Si2657   Si       0.30549    0.82563    0.93135    1.000
    N2658    N        0.28233    0.82070    0.89520    1.000
    Si2659   Si       0.36168    0.77794    0.94473    1.000
    Si2660   Si       0.48018    0.81575    0.89508    1.000
    N2661    N        0.38069    0.80825    0.96861    1.000
    Si2662   Si       0.41565    0.79445    0.89897    1.000
    N2663    N        0.45519    0.78943    0.91956    1.000
    Si2664   Si       0.45591    0.79121    0.96533    1.000
    N2665    N        0.44505    0.83163    0.97331    1.000
    N2666    N        0.28167    0.84723    0.03931    1.000
    Si2667   Si       0.35033    0.86644    0.10638    1.000
    N2668    N        0.24741    0.86424    0.08394    1.000
    N2669    N        0.35180    0.88574    0.06806    1.000
    Si2670   Si       0.26479    0.88554    0.05179    1.000
    Si2671   Si       0.30017    0.83938    0.00106    1.000
    N2672    N        0.33618    0.86797    0.00232    1.000
    Si2673   Si       0.27248    0.85945    0.12108    1.000
    Si2674   Si       0.37125    0.87211    0.02985    1.000
    N2675    N        0.43756    0.85117    0.08375    1.000
    N2676    N        0.46838    0.88003    0.03017    1.000
    Si2677   Si       0.46505    0.88181    0.07335    1.000
    Si2678   Si       0.47287    0.84014    0.00717    1.000
    N2679    N        0.31114    0.88013    0.12288    1.000
    N2680    N        0.26540    0.84033    0.23000    1.000
    N2681    N        0.24722    0.87822    0.15019    1.000
    Si2682   Si       0.25191    0.87999    0.22800    1.000
    Si2683   Si       0.36238    0.85596    0.22627    1.000
    Si2684   Si       0.48483    0.86798    0.18046    1.000
    N2685    N        0.38709    0.88417    0.12609    1.000
    Si2686   Si       0.42539    0.85572    0.12620    1.000
    N2687    N        0.37005    0.85319    0.18377    1.000
    N2688    N        0.46148    0.86919    0.21624    1.000
    N2689    N        0.45728    0.87349    0.14726    1.000
    N2690    N        0.30547    0.86134    0.28110    1.000
    Si2691   Si       0.29188    0.85600    0.32112    1.000
    N2692    N        0.32602    0.83443    0.34366    1.000
    Si2693   Si       0.36756    0.83757    0.35320    1.000
    Si2694   Si       0.41482    0.86151    0.29107    1.000
    N2695    N        0.45468    0.85001    0.28852    1.000
    Si2696   Si       0.48250    0.84195    0.32057    1.000
    N2697    N        0.40023    0.86461    0.24836    1.000
    N2698    N        0.39172    0.83262    0.31447    1.000
    N2699    N        0.48388    0.86568    0.35723    1.000
    N2700    N        0.38855    0.87044    0.37390    1.000
    Si2701   Si       0.46901    0.83897    0.24646    1.000
    Si2702   Si       0.33465    0.84230    0.44277    1.000
    N2703    N        0.31608    0.87861    0.45667    1.000
    Si2704   Si       0.26445    0.85161    0.40984    1.000
    N2705    N        0.24350    0.85207    0.44869    1.000
    Si2706   Si       0.40322    0.87482    0.41498    1.000
    N2707    N        0.43482    0.88081    0.47643    1.000
    Si2708   Si       0.46617    0.85636    0.45869    1.000
    Si2709   Si       0.47878    0.87978    0.40037    1.000
    N2710    N        0.37405    0.86476    0.44591    1.000
    N2711    N        0.44629    0.84996    0.41611    1.000
    Si2712   Si       0.39914    0.85479    0.48306    1.000
    N2713    N        0.29962    0.87429    0.52727    1.000
    Si2714   Si       0.26599    0.88066    0.55373    1.000
    N2715    N        0.26626    0.83672    0.56550    1.000
    N2716    N        0.37025    0.86499    0.59024    1.000
    N2717    N        0.37416    0.86463    0.51765    1.000
    Si2718   Si       0.36941    0.83944    0.55268    1.000
    N2719    N        0.46110    0.88817    0.53975    1.000
    Si2720   Si       0.48807    0.87195    0.57147    1.000
    N2721    N        0.47412    0.83310    0.58547    1.000
    N2722    N        0.32364    0.86679    0.64709    1.000
    N2723    N        0.34059    0.87008    0.71941    1.000
    Si2724   Si       0.28519    0.84671    0.66001    1.000
    N2725    N        0.26380    0.88630    0.65292    1.000
    Si2726   Si       0.36144    0.85206    0.63103    1.000
    Si2727   Si       0.43419    0.84917    0.65683    1.000
    N2728    N        0.39149    0.83771    0.73210    1.000
    Si2729   Si       0.38044    0.86976    0.70262    1.000
    Si2730   Si       0.47407    0.84923    0.73027    1.000
    N2731    N        0.39255    0.86266    0.66153    1.000
    N2732    N        0.45406    0.88975    0.65815    1.000
    N2733    N        0.35390    0.86223    0.78755    1.000
    N2734    N        0.33930    0.85248    0.86161    1.000
    Si2735   Si       0.29637    0.84563    0.86295    1.000
    N2736    N        0.27560    0.88512    0.86479    1.000
    Si2737   Si       0.34881    0.84053    0.75043    1.000
    Si2738   Si       0.36464    0.84511    0.82622    1.000
    N2739    N        0.39765    0.86945    0.84647    1.000
    N2740    N        0.44557    0.86823    0.75762    1.000
    Si2741   Si       0.43220    0.83874    0.83804    1.000
    Si2742   Si       0.46966    0.87586    0.79262    1.000
    N2743    N        0.46476    0.83495    0.80814    1.000
    N2744    N        0.46183    0.84526    0.86966    1.000
    Si2745   Si       0.34764    0.88272    0.96173    1.000
    N2746    N        0.33686    0.85533    0.92862    1.000
    N2747    N        0.27802    0.83542    0.96370    1.000
    N2748    N        0.39951    0.83438    0.90883    1.000
    Si2749   Si       0.36623    0.86074    0.89661    1.000
    N2750    N        0.39068    0.87896    0.95970    1.000
    Si2751   Si       0.40582    0.83952    0.95356    1.000
    N2752    N        0.28374    0.91983    0.07084    1.000
    Si2753   Si       0.32865    0.92048    0.07106    1.000
    N2754    N        0.33751    0.94243    0.03295    1.000
    N2755    N        0.33671    0.94350    0.10670    1.000
    N2756    N        0.44652    0.91634    0.09632    1.000
    N2757    N        0.39534    0.90613    0.01608    1.000
    Si2758   Si       0.47766    0.91794    0.01194    1.000
    Si2759   Si       0.40260    0.92001    0.10867    1.000
    Si2760   Si       0.38018    0.94414    0.03253    1.000
    N2761    N        0.39805    0.94683    0.07250    1.000
    N2762    N        0.27424    0.94021    0.13585    1.000
    Si2763   Si       0.31933    0.92148    0.21129    1.000
    N2764    N        0.33787    0.91757    0.17252    1.000
    Si2765   Si       0.25211    0.91820    0.16905    1.000
    Si2766   Si       0.31321    0.92187    0.13592    1.000
    N2767    N        0.27768    0.91062    0.20527    1.000
    N2768    N        0.33961    0.89190    0.23458    1.000
    Si2769   Si       0.47929    0.90647    0.12581    1.000
    Si2770   Si       0.37550    0.89416    0.16882    1.000
    Si2771   Si       0.42649    0.89518    0.22814    1.000
    N2772    N        0.40466    0.91250    0.19644    1.000
    N2773    N        0.39592    0.94924    0.14145    1.000
    N2774    N        0.31063    0.93289    0.28482    1.000
    Si2775   Si       0.26977    0.91688    0.29313    1.000
    Si2776   Si       0.27767    0.91826    0.36500    1.000
    N2777    N        0.27630    0.89435    0.33156    1.000
    Si2778   Si       0.33221    0.89532    0.27733    1.000
    N2779    N        0.31373    0.94251    0.36034    1.000
    N2780    N        0.35177    0.89674    0.31739    1.000
    Si2781   Si       0.38754    0.90181    0.34261    1.000
    Si2782   Si       0.44477    0.92864    0.29982    1.000
    N2783    N        0.43614    0.92691    0.25673    1.000
    N2784    N        0.37888    0.94252    0.34614    1.000
    N2785    N        0.41861    0.89791    0.31436    1.000
    N2786    N        0.48582    0.92127    0.30966    1.000
    Si2787   Si       0.28286    0.90763    0.44342    1.000
    Si2788   Si       0.35100    0.90627    0.44528    1.000
    N2789    N        0.24808    0.91460    0.46874    1.000
    N2790    N        0.27292    0.89526    0.40281    1.000
    N2791    N        0.31458    0.93955    0.43599    1.000
    N2792    N        0.35001    0.92398    0.48523    1.000
    N2793    N        0.38510    0.91994    0.42055    1.000
    N2794    N        0.48056    0.92183    0.38514    1.000
    Si2795   Si       0.31800    0.92765    0.58043    1.000
    N2796    N        0.34739    0.91540    0.55164    1.000
    N2797    N        0.28367    0.90326    0.58732    1.000
    Si2798   Si       0.24984    0.94034    0.50405    1.000
    N2799    N        0.34496    0.92474    0.61678    1.000
    Si2800   Si       0.25225    0.91601    0.61666    1.000
    Si2801   Si       0.33845    0.89346    0.51496    1.000
    N2802    N        0.23722    0.91212    0.53767    1.000
    Si2803   Si       0.37414    0.90836    0.58660    1.000
    N2804    N        0.40834    0.93587    0.58178    1.000
    N2805    N        0.42820    0.94486    0.50643    1.000
    Si2806   Si       0.48509    0.94602    0.59598    1.000
    Si2807   Si       0.45296    0.91051    0.50436    1.000
    N2808    N        0.48942    0.90390    0.60247    1.000
    N2809    N        0.28315    0.94303    0.63791    1.000
    Si2810   Si       0.30822    0.90738    0.64686    1.000
    N2811    N        0.33227    0.92683    0.67948    1.000
    N2812    N        0.27698    0.90113    0.71647    1.000
    Si2813   Si       0.31996    0.90813    0.71592    1.000
    Si2814   Si       0.35820    0.94930    0.64985    1.000
    Si2815   Si       0.24169    0.89318    0.69041    1.000
    Si2816   Si       0.42995    0.91886    0.67653    1.000
    N2817    N        0.40037    0.94010    0.65281    1.000
    N2818    N        0.40780    0.90426    0.71217    1.000
    N2819    N        0.45886    0.95063    0.69024    1.000
    N2820    N        0.34577    0.92023    0.82709    1.000
    Si2821   Si       0.33627    0.90224    0.78810    1.000
    Si2822   Si       0.26356    0.89882    0.75944    1.000
    Si2823   Si       0.27221    0.90227    0.82454    1.000
    N2824    N        0.33573    0.92686    0.75216    1.000
    N2825    N        0.24968    0.94051    0.76508    1.000
    N2826    N        0.28277    0.94507    0.82170    1.000
    N2827    N        0.29317    0.89080    0.78817    1.000
    Si2828   Si       0.38221    0.91114    0.85053    1.000
    N2829    N        0.39310    0.92354    0.78017    1.000
    Si2830   Si       0.46302    0.92069    0.85600    1.000
    Si2831   Si       0.42834    0.93935    0.80293    1.000
    N2832    N        0.41235    0.94136    0.84678    1.000
    N2833    N        0.45087    0.93535    0.76072    1.000
    N2834    N        0.45026    0.90447    0.81767    1.000
    Si2835   Si       0.42170    0.90548    0.75231    1.000
    Si2836   Si       0.25592    0.90698    0.89505    1.000
    N2837    N        0.33973    0.92359    0.95086    1.000
    N2838    N        0.28343    0.93481    0.91122    1.000
    Si2839   Si       0.30297    0.94791    0.95196    1.000
    N2840    N        0.28022    0.94662    0.98785    1.000
    N2841    N        0.40162    0.94578    0.95472    1.000
    Si2842   Si       0.47495    0.92514    0.93429    1.000
    N2843    N        0.45789    0.91343    0.97255    1.000
    Si2844   Si       0.37267    0.93631    0.92300    1.000
    N2845    N        0.37174    0.90332    0.89354    1.000
    N2846    N        0.45725    0.90812    0.89694    1.000
    Si2847   Si       0.41337    0.91113    0.97615    1.000
    N2848    N        0.28914    0.98267    0.05754    1.000
    Si2849   Si       0.30238    0.96674    0.01945    1.000
    Si2850   Si       0.26954    0.95606    0.09315    1.000
    N2851    N        0.32270    0.99941    0.99929    1.000
    N2852    N        0.28309    0.01315    0.11558    1.000
    N2853    N        0.45611    0.99044    0.09097    1.000
    Si2854   Si       0.47464    0.99221    0.01915    1.000
    N2855    N        0.38588    0.98115    0.01180    1.000
    N2856    N        0.46552    0.95263    0.03574    1.000
    Si2857   Si       0.44144    0.95503    0.07179    1.000
    N2858    N        0.38302    0.00908    0.11929    1.000
    N2859    N        0.33489    0.99151    0.16039    1.000
    N2860    N        0.33485    0.95885    0.22682    1.000
    Si2861   Si       0.35038    0.99151    0.20137    1.000
    Si2862   Si       0.36072    0.97263    0.12896    1.000
    Si2863   Si       0.46132    0.95749    0.23808    1.000
    N2864    N        0.39506    0.99045    0.19555    1.000
    N2865    N        0.45671    0.95319    0.19480    1.000
    Si2866   Si       0.41387    0.95335    0.18181    1.000
    N2867    N        0.44671    0.99765    0.24698    1.000
    Si2868   Si       0.32453    0.97001    0.26724    1.000
    N2869    N        0.34791    0.98572    0.29982    1.000
    N2870    N        0.29080    0.99681    0.25648    1.000
    Si2871   Si       0.25088    0.98838    0.27188    1.000
    N2872    N        0.25289    0.95459    0.36577    1.000
    Si2873   Si       0.33831    0.94166    0.32447    1.000
    Si2874   Si       0.43984    0.00362    0.28964    1.000
    N2875    N        0.43260    0.96928    0.31374    1.000
    Si2876   Si       0.40538    0.97522    0.34915    1.000
    N2877    N        0.35634    0.98034    0.40191    1.000
    Si2878   Si       0.31546    0.96180    0.39949    1.000
    N2879    N        0.33244    0.99948    0.46990    1.000
    N2880    N        0.28825    0.99592    0.40682    1.000
    Si2881   Si       0.32313    0.95766    0.47577    1.000
    Si2882   Si       0.24593    0.99139    0.38709    1.000
    N2883    N        0.42328    0.96986    0.38709    1.000
    Si2884   Si       0.43695    0.97092    0.47299    1.000
    N2885    N        0.39707    0.98113    0.45629    1.000
    N2886    N        0.46492    0.95979    0.44099    1.000
    N2887    N        0.48751    0.99482    0.38084    1.000
    Si2888   Si       0.39288    0.96170    0.41744    1.000
    N2889    N        0.45334    0.00770    0.48840    1.000
    Si2890   Si       0.46439    0.96067    0.39656    1.000
    N2891    N        0.30885    0.96953    0.57629    1.000
    Si2892   Si       0.29888    0.98961    0.53961    1.000
    N2893    N        0.29032    0.95967    0.50383    1.000
    N2894    N        0.25837    0.00327    0.54877    1.000
    Si2895   Si       0.29818    0.97925    0.61859    1.000
    Si2896   Si       0.24003    0.99524    0.58964    1.000
    N2897    N        0.42283    0.99901    0.55142    1.000
    Si2898   Si       0.42932    0.95648    0.54863    1.000
    Si2899   Si       0.41612    0.95882    0.61793    1.000
    N2900    N        0.47231    0.95463    0.55563    1.000
    N2901    N        0.39806    0.99571    0.62040    1.000
    N2902    N        0.33401    0.98701    0.64154    1.000
    N2903    N        0.38683    0.98327    0.74013    1.000
    N2904    N        0.45803    0.96361    0.62433    1.000
    N2905    N        0.45710    0.99772    0.73799    1.000
    Si2906   Si       0.47412    0.95700    0.73140    1.000
    Si2907   Si       0.46611    0.98346    0.66245    1.000
    N2908    N        0.34327    0.97797    0.79495    1.000
    N2909    N        0.31752    0.98756    0.85925    1.000
    Si2910   Si       0.25499    0.96788    0.79947    1.000
    N2911    N        0.27358    0.00525    0.78140    1.000
    Si2912   Si       0.32433    0.95744    0.82936    1.000
    N2913    N        0.42387    0.98368    0.80007    1.000
    Si2914   Si       0.44212    0.99272    0.83945    1.000
    N2915    N        0.47320    0.96114    0.84346    1.000
    Si2916   Si       0.41906    0.00369    0.76175    1.000
    Si2917   Si       0.36538    0.95405    0.76488    1.000
    N2918    N        0.25695    0.99357    0.88525    1.000
    N2919    N        0.30593    0.98907    0.93520    1.000
    Si2920   Si       0.29429    0.97822    0.89412    1.000
    N2921    N        0.47166    0.96708    0.93128    1.000
    Si2922   Si       0.47907    0.00589    0.95215    1.000
    Si2923   Si       0.39290    0.00905    0.89959    1.000
    N2924    N        0.37233    0.96999    0.89745    1.000
    Si2925   Si       0.41080    0.98423    0.97411    1.000
    N2926    N        0.44908    0.99947    0.98503    1.000
    N2927    N        0.42794    0.01359    0.87521    1.000
    Si2928   Si       0.52167    0.02577    0.05980    1.000
    N2929    N        0.55152    0.02907    0.02940    1.000
    Si2930   Si       0.59361    0.02822    0.04420    1.000
    Si2931   Si       0.59781    0.01827    0.12012    1.000
    N2932    N        0.52537    0.06551    0.07700    1.000
    N2933    N        0.67737    0.04540    0.02398    1.000
    N2934    N        0.68931    0.04805    0.10549    1.000
    N2935    N        0.73362    0.06143    0.06294    1.000
    Si2936   Si       0.68886    0.06495    0.06361    1.000
    N2937    N        0.62146    0.01353    0.01558    1.000
    Si2938   Si       0.72975    0.06529    0.10735    1.000
    N2939    N        0.57930    0.05666    0.12552    1.000
    Si2940   Si       0.57341    0.06560    0.16780    1.000
    Si2941   Si       0.53955    0.04506    0.23095    1.000
    N2942    N        0.55119    0.03540    0.18797    1.000
    N2943    N        0.50493    0.01323    0.14160    1.000
    N2944    N        0.67864    0.03813    0.18569    1.000
    N2945    N        0.63765    0.01755    0.13721    1.000
    N2946    N        0.63655    0.02230    0.24007    1.000
    Si2947   Si       0.65486    0.05509    0.21802    1.000
    Si2948   Si       0.66730    0.04932    0.14334    1.000
    N2949    N        0.53849    0.02102    0.33148    1.000
    Si2950   Si       0.60745    0.04541    0.26993    1.000
    N2951    N        0.60004    0.01684    0.36179    1.000
    Si2952   Si       0.53780    0.06661    0.32922    1.000
    Si2953   Si       0.49508    0.02270    0.34523    1.000
    N2954    N        0.61201    0.06192    0.30969    1.000
    N2955    N        0.57561    0.06522    0.24587    1.000
    N2956    N        0.71737    0.02238    0.29286    1.000
    N2957    N        0.65872    0.05576    0.35928    1.000
    Si2958   Si       0.62983    0.03114    0.33644    1.000
    N2959    N        0.71219    0.01190    0.36038    1.000
    Si2960   Si       0.72154    0.06693    0.29815    1.000
    Si2961   Si       0.49406    0.02030    0.47965    1.000
    N2962    N        0.57475    0.04021    0.47648    1.000
    N2963    N        0.54477    0.03314    0.40459    1.000
    Si2964   Si       0.50374    0.01612    0.41486    1.000
    Si2965   Si       0.55814    0.01520    0.44621    1.000
    N2966    N        0.74158    0.02476    0.47544    1.000
    N2967    N        0.69475    0.04544    0.42087    1.000
    N2968    N        0.63217    0.04712    0.44076    1.000
    N2969    N        0.67451    0.05022    0.49053    1.000
    Si2970   Si       0.67851    0.02649    0.38469    1.000
    Si2971   Si       0.73247    0.02779    0.43228    1.000
    Si2972   Si       0.59336    0.04397    0.51612    1.000
    Si2973   Si       0.52618    0.03996    0.53369    1.000
    N2974    N        0.56569    0.05421    0.54566    1.000
    N2975    N        0.50247    0.05350    0.56847    1.000
    Si2976   Si       0.52295    0.06234    0.60493    1.000
    N2977    N        0.50840    0.05937    0.49954    1.000
    N2978    N        0.62232    0.01794    0.53145    1.000
    N2979    N        0.63739    0.02905    0.59573    1.000
    Si2980   Si       0.71361    0.03615    0.50564    1.000
    Si2981   Si       0.65739    0.01226    0.50514    1.000
    N2982    N        0.73369    0.06370    0.53067    1.000
    N2983    N        0.55082    0.03255    0.61945    1.000
    Si2984   Si       0.51240    0.04577    0.67046    1.000
    Si2985   Si       0.55757    0.04448    0.72556    1.000
    N2986    N        0.55278    0.05062    0.68376    1.000
    Si2987   Si       0.57993    0.04651    0.64920    1.000
    N2988    N        0.59933    0.03374    0.73871    1.000
    N2989    N        0.52783    0.01663    0.73674    1.000
    N2990    N        0.49379    0.06578    0.63817    1.000
    N2991    N        0.61428    0.02274    0.65896    1.000
    Si2992   Si       0.72411    0.01198    0.65243    1.000
    N2993    N        0.72933    0.05435    0.64386    1.000
    Si2994   Si       0.65067    0.03252    0.63674    1.000
    N2995    N        0.69144    0.03260    0.74308    1.000
    Si2996   Si       0.72665    0.04529    0.71722    1.000
    Si2997   Si       0.52351    0.04746    0.85351    1.000
    N2998    N        0.52897    0.05578    0.81252    1.000
    Si2999   Si       0.49694    0.03017    0.79745    1.000
    Si3000   Si       0.69712    0.02218    0.83301    1.000
    N3001    N        0.66327    0.02942    0.79795    1.000
    Si3002   Si       0.63440    0.02170    0.83043    1.000
    N3003    N        0.62747    0.06042    0.84707    1.000
    N3004    N        0.72737    0.01465    0.86377    1.000
    Si3005   Si       0.67572    0.06169    0.77320    1.000
    N3006    N        0.56391    0.05150    0.86698    1.000
    N3007    N        0.57495    0.01958    0.96487    1.000
    Si3008   Si       0.50383    0.05336    0.92007    1.000
    N3009    N        0.51924    0.01651    0.93545    1.000
    Si3010   Si       0.53821    0.02837    0.98837    1.000
    N3011    N        0.51134    0.06132    0.99175    1.000
    N3012    N        0.49162    0.05746    0.87945    1.000
    N3013    N        0.64508    0.04554    0.95985    1.000
    Si3014   Si       0.61674    0.01466    0.97128    1.000
    Si3015   Si       0.71931    0.01779    0.90843    1.000
    N3016    N        0.71197    0.06002    0.91466    1.000
    Si3017   Si       0.51332    0.10720    0.07664    1.000
    N3018    N        0.55448    0.11793    0.09191    1.000
    Si3019   Si       0.56867    0.07382    0.08722    1.000
    N3020    N        0.48792    0.12237    0.10967    1.000
    N3021    N        0.60281    0.06814    0.05950    1.000
    Si3022   Si       0.62839    0.10030    0.04485    1.000
    N3023    N        0.66637    0.10170    0.06450    1.000
    N3024    N        0.72033    0.10615    0.11533    1.000
    N3025    N        0.63767    0.09809    0.00265    1.000
    N3026    N        0.51561    0.08345    0.22676    1.000
    N3027    N        0.61261    0.07212    0.19054    1.000
    Si3028   Si       0.60154    0.09817    0.22463    1.000
    N3029    N        0.54714    0.10153    0.16627    1.000
    Si3030   Si       0.50890    0.10024    0.18789    1.000
    Si3031   Si       0.56223    0.12645    0.13328    1.000
    Si3032   Si       0.73414    0.06936    0.22865    1.000
    N3033    N        0.69171    0.07311    0.23718    1.000
    N3034    N        0.66362    0.09236    0.14918    1.000
    Si3035   Si       0.62792    0.10737    0.16617    1.000
    Si3036   Si       0.54210    0.10145    0.25992    1.000
    Si3037   Si       0.59357    0.09589    0.32987    1.000
    N3038    N        0.56380    0.08446    0.36010    1.000
    N3039    N        0.56625    0.11598    0.30114    1.000
    N3040    N        0.52279    0.07098    0.28966    1.000
    N3041    N        0.49938    0.06709    0.34994    1.000
    Si3042   Si       0.73875    0.11121    0.35783    1.000
    N3043    N        0.68352    0.08853    0.30322    1.000
    Si3044   Si       0.66450    0.09562    0.34175    1.000
    Si3045   Si       0.66770    0.10030    0.26428    1.000
    N3046    N        0.62866    0.11893    0.34122    1.000
    N3047    N        0.69449    0.11917    0.36245    1.000
    N3048    N        0.73950    0.07346    0.33683    1.000
    N3049    N        0.63228    0.08296    0.25040    1.000
    Si3050   Si       0.60114    0.07049    0.45938    1.000
    N3051    N        0.58240    0.09454    0.42905    1.000
    N3052    N        0.51282    0.10055    0.41002    1.000
    Si3053   Si       0.55084    0.07682    0.40169    1.000
    N3054    N        0.66339    0.10763    0.46482    1.000
    Si3055   Si       0.67169    0.06624    0.44899    1.000
    N3056    N        0.54113    0.10097    0.59550    1.000
    Si3057   Si       0.56800    0.09426    0.56135    1.000
    N3058    N        0.60602    0.10884    0.57935    1.000
    N3059    N        0.55712    0.12063    0.52861    1.000
    N3060    N        0.61230    0.08247    0.50210    1.000
    Si3061   Si       0.59502    0.12362    0.50612    1.000
    Si3062   Si       0.59889    0.12268    0.62009    1.000
    N3063    N        0.67506    0.09821    0.54299    1.000
    Si3064   Si       0.71851    0.09921    0.55309    1.000
    Si3065   Si       0.65560    0.08831    0.50387    1.000
    Si3066   Si       0.64371    0.12413    0.56054    1.000
    N3067    N        0.73834    0.08906    0.59048    1.000
    N3068    N        0.59563    0.08509    0.64295    1.000
    Si3069   Si       0.60622    0.07747    0.74347    1.000
    Si3070   Si       0.53790    0.12181    0.73457    1.000
    N3071    N        0.50946    0.11972    0.70143    1.000
    N3072    N        0.56158    0.08300    0.74496    1.000
    N3073    N        0.62074    0.09978    0.70954    1.000
    Si3074   Si       0.71389    0.11296    0.73474    1.000
    N3075    N        0.71693    0.08616    0.70263    1.000
    Si3076   Si       0.70438    0.08731    0.65758    1.000
    Si3077   Si       0.62885    0.09580    0.66961    1.000
    Si3078   Si       0.64536    0.12470    0.73908    1.000
    N3079    N        0.66301    0.06904    0.65760    1.000
    Si3080   Si       0.54920    0.08663    0.78656    1.000
    Si3081   Si       0.58974    0.08054    0.84825    1.000
    N3082    N        0.58576    0.09686    0.80801    1.000
    N3083    N        0.52205    0.11970    0.77861    1.000
    Si3084   Si       0.62450    0.11782    0.80069    1.000
    N3085    N        0.70889    0.08926    0.77209    1.000
    N3086    N        0.64053    0.09048    0.76862    1.000
    Si3087   Si       0.66399    0.08387    0.85395    1.000
    Si3088   Si       0.72571    0.09235    0.81237    1.000
    N3089    N        0.65472    0.12290    0.83312    1.000
    N3090    N        0.69873    0.06669    0.83755    1.000
    N3091    N        0.59279    0.11321    0.87468    1.000
    Si3092   Si       0.51485    0.09796    0.96944    1.000
    N3093    N        0.52899    0.08751    0.93024    1.000
    N3094    N        0.60132    0.11312    0.94089    1.000
    Si3095   Si       0.56024    0.11937    0.93508    1.000
    N3096    N        0.70113    0.08928    0.97463    1.000
    Si3097   Si       0.68904    0.09766    0.93027    1.000
    N3098    N        0.66060    0.09568    0.89648    1.000
    N3099    N        0.72673    0.12166    0.92219    1.000
    Si3100   Si       0.62471    0.11935    0.90554    1.000
    Si3101   Si       0.62862    0.12662    0.97085    1.000
    Si3102   Si       0.66703    0.06844    0.98791    1.000
    Si3103   Si       0.57224    0.15323    0.07374    1.000
    N3104    N        0.55421    0.16923    0.03488    1.000
    N3105    N        0.49685    0.17231    0.00772    1.000
    N3106    N        0.51413    0.18148    0.08618    1.000
    N3107    N        0.60795    0.13689    0.05422    1.000
    N3108    N        0.59358    0.18332    0.09665    1.000
    Si3109   Si       0.62021    0.17306    0.02943    1.000
    N3110    N        0.66447    0.17400    0.03732    1.000
    N3111    N        0.71897    0.14419    0.06130    1.000
    N3112    N        0.66331    0.15268    0.10977    1.000
    Si3113   Si       0.67589    0.14350    0.06843    1.000
    Si3114   Si       0.73877    0.15920    0.02642    1.000
    Si3115   Si       0.50124    0.16346    0.12293    1.000
    N3116    N        0.54212    0.16381    0.14181    1.000
    Si3117   Si       0.56891    0.17354    0.23028    1.000
    N3118    N        0.56856    0.12837    0.23422    1.000
    N3119    N        0.60476    0.12945    0.13789    1.000
    Si3120   Si       0.62307    0.16723    0.12336    1.000
    N3121    N        0.72855    0.14736    0.22731    1.000
    Si3122   Si       0.63010    0.17388    0.19831    1.000
    N3123    N        0.71554    0.15151    0.15992    1.000
    Si3124   Si       0.68790    0.12871    0.13620    1.000
    N3125    N        0.62784    0.13049    0.20195    1.000
    Si3126   Si       0.69245    0.16824    0.23859    1.000
    Si3127   Si       0.56455    0.15999    0.30309    1.000
    N3128    N        0.60762    0.16945    0.30337    1.000
    N3129    N        0.54518    0.17470    0.33856    1.000
    Si3130   Si       0.50268    0.18143    0.34026    1.000
    N3131    N        0.50722    0.13089    0.26522    1.000
    Si3132   Si       0.50318    0.17360    0.26344    1.000
    N3133    N        0.49197    0.14468    0.36499    1.000
    Si3134   Si       0.63518    0.17397    0.27132    1.000
    Si3135   Si       0.63096    0.16133    0.33997    1.000
    Si3136   Si       0.70310    0.16422    0.34721    1.000
    N3137    N        0.66641    0.14574    0.26261    1.000
    N3138    N        0.66843    0.18165    0.33089    1.000
    N3139    N        0.55586    0.15467    0.40439    1.000
    Si3140   Si       0.58736    0.13919    0.42978    1.000
    Si3141   Si       0.51322    0.14178    0.40255    1.000
    N3142    N        0.58155    0.14825    0.47278    1.000
    N3143    N        0.52222    0.17243    0.49251    1.000
    N3144    N        0.60965    0.18123    0.37124    1.000
    Si3145   Si       0.56642    0.18413    0.37465    1.000
    N3146    N        0.63017    0.15229    0.42513    1.000
    N3147    N        0.70413    0.15944    0.45463    1.000
    Si3148   Si       0.66203    0.14999    0.45276    1.000
    N3149    N        0.52950    0.16676    0.56869    1.000
    Si3150   Si       0.52964    0.14086    0.60435    1.000
    Si3151   Si       0.52232    0.14900    0.52915    1.000
    N3152    N        0.62759    0.14259    0.52511    1.000
    N3153    N        0.66188    0.15412    0.58549    1.000
    N3154    N        0.72673    0.14093    0.56276    1.000
    Si3155   Si       0.73712    0.13179    0.60434    1.000
    N3156    N        0.69583    0.18527    0.52541    1.000
    Si3157   Si       0.73787    0.17060    0.52779    1.000
    Si3158   Si       0.67470    0.18752    0.56118    1.000
    N3159    N        0.56718    0.15408    0.62484    1.000
    Si3160   Si       0.49600    0.15141    0.67264    1.000
    N3161    N        0.56292    0.15705    0.73809    1.000
    N3162    N        0.49443    0.14368    0.62823    1.000
    N3163    N        0.52727    0.18092    0.68351    1.000
    Si3164   Si       0.66913    0.15288    0.62790    1.000
    Si3165   Si       0.71258    0.17611    0.73046    1.000
    N3166    N        0.68207    0.14127    0.72863    1.000
    N3167    N        0.63473    0.13276    0.64554    1.000
    N3168    N        0.70427    0.12546    0.63417    1.000
    N3169    N        0.53425    0.14171    0.84534    1.000
    Si3170   Si       0.53157    0.15673    0.80283    1.000
    Si3171   Si       0.59273    0.17688    0.76449    1.000
    N3172    N        0.57046    0.17921    0.80077    1.000
    Si3173   Si       0.56945    0.14862    0.87009    1.000
    N3174    N        0.62559    0.14926    0.77105    1.000
    Si3175   Si       0.68625    0.14969    0.84628    1.000
    N3176    N        0.72149    0.13135    0.82864    1.000
    Si3177   Si       0.51221    0.15271    0.88105    1.000
    N3178    N        0.54679    0.14847    0.90728    1.000
    N3179    N        0.60725    0.15927    0.99049    1.000
    Si3180   Si       0.56352    0.16306    0.99275    1.000
    N3181    N        0.54500    0.12757    0.97557    1.000
    N3182    N        0.66187    0.13132    0.94531    1.000
    Si3183   Si       0.66917    0.16384    0.91748    1.000
    Si3184   Si       0.73693    0.16118    0.90462    1.000
    N3185    N        0.69495    0.16272    0.88540    1.000
    N3186    N        0.63081    0.16304    0.90140    1.000
    Si3187   Si       0.60375    0.22174    0.08148    1.000
    Si3188   Si       0.52823    0.22284    0.09517    1.000
    N3189    N        0.53440    0.23214    0.05400    1.000
    Si3190   Si       0.51519    0.19385    0.04040    1.000
    N3191    N        0.61095    0.21352    0.04067    1.000
    N3192    N        0.48861    0.23444    0.10849    1.000
    Si3193   Si       0.68521    0.20755    0.02197    1.000
    N3194    N        0.64245    0.23003    0.09726    1.000
    N3195    N        0.71965    0.19087    0.00181    1.000
    N3196    N        0.69380    0.23608    0.05342    1.000
    Si3197   Si       0.57003    0.19514    0.15700    1.000
    N3198    N        0.55625    0.22876    0.13024    1.000
    Si3199   Si       0.52005    0.22166    0.21179    1.000
    N3200    N        0.55547    0.20035    0.19840    1.000
    N3201    N        0.61084    0.18604    0.23623    1.000
    N3202    N        0.49201    0.19049    0.22513    1.000
    N3203    N        0.61222    0.18859    0.16084    1.000
    Si3204   Si       0.67041    0.23264    0.20246    1.000
    N3205    N        0.67044    0.18821    0.20789    1.000
    N3206    N        0.67860    0.24374    0.16046    1.000
    Si3207   Si       0.54545    0.22838    0.27859    1.000
    N3208    N        0.50047    0.22052    0.35970    1.000
    N3209    N        0.54785    0.18586    0.26731    1.000
    N3210    N        0.64859    0.23331    0.36131    1.000
    N3211    N        0.71688    0.19378    0.26753    1.000
    N3212    N        0.65153    0.21549    0.27498    1.000
    Si3213   Si       0.65691    0.22695    0.31854    1.000
    Si3214   Si       0.70268    0.23422    0.26977    1.000
    Si3215   Si       0.61695    0.22689    0.24827    1.000
    N3216    N        0.56249    0.22603    0.38481    1.000
    N3217    N        0.53264    0.21874    0.45335    1.000
    Si3218   Si       0.56349    0.23383    0.42762    1.000
    N3219    N        0.59227    0.20403    0.43939    1.000
    Si3220   Si       0.49709    0.19419    0.46210    1.000
    Si3221   Si       0.56392    0.18881    0.47420    1.000
    N3222    N        0.65523    0.22036    0.42164    1.000
    Si3223   Si       0.69829    0.19643    0.48236    1.000
    Si3224   Si       0.62377    0.19397    0.41001    1.000
    N3225    N        0.70826    0.19174    0.38247    1.000
    Si3226   Si       0.68100    0.22591    0.38759    1.000
    N3227    N        0.69487    0.24064    0.47982    1.000
    N3228    N        0.65130    0.18561    0.48027    1.000
    Si3229   Si       0.53581    0.20714    0.58008    1.000
    N3230    N        0.57103    0.23285    0.57855    1.000
    N3231    N        0.58682    0.20650    0.50720    1.000
    N3232    N        0.51132    0.23827    0.56137    1.000
    N3233    N        0.53114    0.21021    0.62457    1.000
    Si3234   Si       0.61398    0.23832    0.57188    1.000
    N3235    N        0.63678    0.20477    0.55378    1.000
    N3236    N        0.69922    0.21600    0.58253    1.000
    Si3237   Si       0.67614    0.23081    0.61473    1.000
    Si3238   Si       0.74032    0.22442    0.57271    1.000
    Si3239   Si       0.62513    0.18637    0.51597    1.000
    N3240    N        0.58746    0.20074    0.67665    1.000
    N3241    N        0.53970    0.22906    0.72246    1.000
    Si3242   Si       0.50026    0.21261    0.70362    1.000
    Si3243   Si       0.56348    0.19179    0.71184    1.000
    N3244    N        0.60177    0.21128    0.74101    1.000
    Si3245   Si       0.49919    0.24041    0.63352    1.000
    Si3246   Si       0.55695    0.18647    0.64992    1.000
    Si3247   Si       0.61613    0.22647    0.70064    1.000
    N3248    N        0.66692    0.19455    0.64014    1.000
    Si3249   Si       0.68055    0.23884    0.73814    1.000
    N3250    N        0.72298    0.20132    0.69625    1.000
    N3251    N        0.65809    0.22121    0.70377    1.000
    Si3252   Si       0.68850    0.21425    0.67162    1.000
    Si3253   Si       0.51307    0.21798    0.83905    1.000
    Si3254   Si       0.58439    0.21086    0.82769    1.000
    N3255    N        0.50458    0.18990    0.80582    1.000
    N3256    N        0.55220    0.23912    0.83058    1.000
    N3257    N        0.58292    0.18993    0.86491    1.000
    N3258    N        0.62055    0.22524    0.80819    1.000
    Si3259   Si       0.65748    0.22342    0.83304    1.000
    Si3260   Si       0.70977    0.21087    0.80308    1.000
    N3261    N        0.70222    0.20762    0.76006    1.000
    N3262    N        0.67984    0.18682    0.82264    1.000
    N3263    N        0.50451    0.19512    0.87306    1.000
    Si3264   Si       0.57312    0.23095    0.95663    1.000
    Si3265   Si       0.50461    0.19531    0.97069    1.000
    N3266    N        0.54799    0.20053    0.97220    1.000
    N3267    N        0.60847    0.21791    0.93545    1.000
    Si3268   Si       0.72018    0.20559    0.96055    1.000
    N3269    N        0.64329    0.22701    0.87379    1.000
    Si3270   Si       0.61198    0.20181    0.89589    1.000
    N3271    N        0.68021    0.19755    0.94180    1.000
    Si3272   Si       0.65001    0.22779    0.95087    1.000
    N3273    N        0.65631    0.22630    0.99379    1.000
    Si3274   Si       0.55328    0.27185    0.05338    1.000
    N3275    N        0.58464    0.26177    0.08213    1.000
    N3276    N        0.55676    0.30002    0.01924    1.000
    N3277    N        0.52592    0.30124    0.07229    1.000
    Si3278   Si       0.73671    0.29950    0.10406    1.000
    N3279    N        0.64080    0.28004    0.03731    1.000
    N3280    N        0.66221    0.28771    0.10100    1.000
    Si3281   Si       0.66133    0.25929    0.06912    1.000
    N3282    N        0.72678    0.25915    0.11459    1.000
    Si3283   Si       0.62502    0.24724    0.01415    1.000
    Si3284   Si       0.73136    0.24796    0.07131    1.000
    Si3285   Si       0.57713    0.26648    0.12490    1.000
    Si3286   Si       0.50380    0.29200    0.18033    1.000
    N3287    N        0.57971    0.29561    0.20549    1.000
    N3288    N        0.55852    0.30332    0.13628    1.000
    N3289    N        0.50867    0.24853    0.18102    1.000
    Si3290   Si       0.56813    0.28846    0.24683    1.000
    Si3291   Si       0.65106    0.25647    0.13117    1.000
    N3292    N        0.61345    0.26819    0.14832    1.000
    N3293    N        0.69417    0.25411    0.23186    1.000
    Si3294   Si       0.67434    0.29661    0.23404    1.000
    Si3295   Si       0.61716    0.28131    0.18994    1.000
    N3296    N        0.63273    0.24803    0.21339    1.000
    Si3297   Si       0.72024    0.25352    0.15780    1.000
    Si3298   Si       0.73505    0.27743    0.23202    1.000
    N3299    N        0.72648    0.28954    0.18090    1.000
    Si3300   Si       0.58700    0.27114    0.30648    1.000
    N3301    N        0.58359    0.24840    0.26366    1.000
    Si3302   Si       0.49590    0.28527    0.25283    1.000
    Si3303   Si       0.53564    0.24677    0.35718    1.000
    N3304    N        0.55058    0.24818    0.31741    1.000
    N3305    N        0.51735    0.24647    0.25045    1.000
    N3306    N        0.58904    0.29725    0.34663    1.000
    Si3307   Si       0.66845    0.29109    0.31006    1.000
    N3308    N        0.62935    0.26322    0.31408    1.000
    N3309    N        0.69086    0.25343    0.30758    1.000
    Si3310   Si       0.62949    0.27791    0.35756    1.000
    Si3311   Si       0.73686    0.28047    0.31068    1.000
    N3312    N        0.52861    0.28558    0.37505    1.000
    Si3313   Si       0.49389    0.29888    0.40021    1.000
    N3314    N        0.56696    0.27787    0.42894    1.000
    Si3315   Si       0.53627    0.28796    0.45951    1.000
    N3316    N        0.49643    0.28249    0.44040    1.000
    Si3317   Si       0.56945    0.29739    0.38819    1.000
    Si3318   Si       0.61167    0.29373    0.44112    1.000
    N3319    N        0.55965    0.26941    0.49423    1.000
    N3320    N        0.62366    0.28924    0.39871    1.000
    N3321    N        0.69787    0.26345    0.39483    1.000
    Si3322   Si       0.67372    0.30005    0.39794    1.000
    Si3323   Si       0.66404    0.25203    0.45230    1.000
    N3324    N        0.62275    0.26127    0.46809    1.000
    N3325    N        0.66938    0.29678    0.44233    1.000
    Si3326   Si       0.54288    0.27015    0.57992    1.000
    N3327    N        0.51742    0.27607    0.61547    1.000
    N3328    N        0.52433    0.29854    0.54848    1.000
    Si3329   Si       0.59786    0.24940    0.50171    1.000
    N3330    N        0.61381    0.26658    0.53804    1.000
    N3331    N        0.57830    0.29753    0.58943    1.000
    N3332    N        0.63961    0.25578    0.60219    1.000
    N3333    N        0.73462    0.25606    0.54204    1.000
    Si3334   Si       0.64340    0.29724    0.61195    1.000
    Si3335   Si       0.72541    0.26365    0.49994    1.000
    Si3336   Si       0.73998    0.29466    0.56252    1.000
    Si3337   Si       0.56346    0.26539    0.72769    1.000
    N3338    N        0.59753    0.26627    0.70221    1.000
    N3339    N        0.53727    0.29969    0.71916    1.000
    N3340    N        0.49021    0.24513    0.67568    1.000
    N3341    N        0.71138    0.26363    0.72015    1.000
    N3342    N        0.70452    0.24473    0.64494    1.000
    N3343    N        0.57773    0.26671    0.76948    1.000
    N3344    N        0.51349    0.28761    0.78806    1.000
    Si3345   Si       0.55214    0.27463    0.80357    1.000
    Si3346   Si       0.61340    0.24293    0.76846    1.000
    Si3347   Si       0.70079    0.28029    0.85060    1.000
    N3348    N        0.64994    0.26571    0.75684    1.000
    N3349    N        0.66206    0.29418    0.86433    1.000
    N3350    N        0.69174    0.24881    0.82144    1.000
    Si3351   Si       0.56762    0.28952    0.97931    1.000
    N3352    N        0.59847    0.27797    0.89617    1.000
    N3353    N        0.54212    0.26659    0.95326    1.000
    Si3354   Si       0.49779    0.26648    0.94717    1.000
    N3355    N        0.59294    0.25507    0.98865    1.000
    N3356    N        0.72632    0.24839    0.95851    1.000
    Si3357   Si       0.70392    0.27125    0.92827    1.000
    N3358    N        0.66082    0.26294    0.93029    1.000
    N3359    N        0.72170    0.27302    0.88833    1.000
    Si3360   Si       0.63995    0.26629    0.89101    1.000
    Si3361   Si       0.52848    0.32839    0.03690    1.000
    Si3362   Si       0.52248    0.31224    0.11328    1.000
    N3363    N        0.49635    0.34043    0.00659    1.000
    N3364    N        0.51716    0.35484    0.11660    1.000
    Si3365   Si       0.65736    0.31847    0.02840    1.000
    N3366    N        0.71197    0.33696    0.09296    1.000
    N3367    N        0.64649    0.34411    0.06088    1.000
    Si3368   Si       0.66701    0.33101    0.09816    1.000
    N3369    N        0.70215    0.31436    0.01919    1.000
    Si3370   Si       0.56760    0.32517    0.17470    1.000
    N3371    N        0.52637    0.33249    0.18396    1.000
    Si3372   Si       0.52009    0.34635    0.22706    1.000
    N3373    N        0.59933    0.35516    0.17375    1.000
    N3374    N        0.64592    0.31153    0.20483    1.000
    N3375    N        0.71306    0.31460    0.24078    1.000
    Si3376   Si       0.62976    0.35400    0.20616    1.000
    N3377    N        0.65466    0.35670    0.13013    1.000
    Si3378   Si       0.58281    0.33555    0.31693    1.000
    N3379    N        0.58347    0.30825    0.28369    1.000
    N3380    N        0.53170    0.31001    0.24832    1.000
    N3381    N        0.66600    0.30491    0.35221    1.000
    Si3382   Si       0.63873    0.35026    0.27672    1.000
    Si3383   Si       0.69992    0.33730    0.35049    1.000
    Si3384   Si       0.70996    0.34369    0.27514    1.000
    N3385    N        0.70920    0.31571    0.30977    1.000
    N3386    N        0.65474    0.30833    0.27197    1.000
    N3387    N        0.62061    0.35702    0.31545    1.000
    N3388    N        0.56997    0.33997    0.39775    1.000
    N3389    N        0.53276    0.32504    0.48291    1.000
    N3390    N        0.50094    0.34261    0.40480    1.000
    N3391    N        0.61022    0.33399    0.45178    1.000
    Si3392   Si       0.61510    0.34305    0.49439    1.000
    N3393    N        0.71952    0.30673    0.49357    1.000
    N3394    N        0.70056    0.33790    0.39781    1.000
    Si3395   Si       0.68309    0.32323    0.47345    1.000
    N3396    N        0.58700    0.32721    0.52363    1.000
    N3397    N        0.51308    0.34417    0.60401    1.000
    Si3398   Si       0.50461    0.33523    0.56046    1.000
    Si3399   Si       0.55121    0.30528    0.51665    1.000
    Si3400   Si       0.60733    0.30558    0.55563    1.000
    Si3401   Si       0.71567    0.32410    0.61241    1.000
    N3402    N        0.65485    0.32567    0.50789    1.000
    Si3403   Si       0.67407    0.33438    0.54530    1.000
    N3404    N        0.71283    0.32895    0.56706    1.000
    N3405    N        0.64351    0.32207    0.57320    1.000
    Si3406   Si       0.50344    0.30331    0.74562    1.000
    Si3407   Si       0.58150    0.32643    0.62296    1.000
    Si3408   Si       0.51364    0.31501    0.63422    1.000
    N3409    N        0.55117    0.32859    0.65523    1.000
    N3410    N        0.59147    0.33973    0.70545    1.000
    Si3411   Si       0.54875    0.33747    0.69919    1.000
    Si3412   Si       0.60993    0.30513    0.68684    1.000
    N3413    N        0.65087    0.30902    0.70072    1.000
    N3414    N        0.72147    0.32337    0.68146    1.000
    N3415    N        0.67889    0.31587    0.63142    1.000
    Si3416   Si       0.72481    0.30308    0.71912    1.000
    Si3417   Si       0.67940    0.33006    0.67336    1.000
    N3418    N        0.61593    0.30954    0.64329    1.000
    N3419    N        0.72813    0.36275    0.62948    1.000
    Si3420   Si       0.65548    0.30707    0.74513    1.000
    Si3421   Si       0.57817    0.34382    0.84445    1.000
    Si3422   Si       0.52064    0.33088    0.80124    1.000
    N3423    N        0.55911    0.31475    0.81879    1.000
    N3424    N        0.50560    0.34529    0.76064    1.000
    N3425    N        0.49505    0.35701    0.82428    1.000
    N3426    N        0.62186    0.34505    0.84145    1.000
    N3427    N        0.63281    0.33993    0.76603    1.000
    Si3428   Si       0.71008    0.35315    0.83617    1.000
    N3429    N        0.72686    0.31328    0.83830    1.000
    N3430    N        0.69552    0.32327    0.74535    1.000
    N3431    N        0.51740    0.35588    0.93088    1.000
    Si3432   Si       0.59127    0.31569    0.91109    1.000
    N3433    N        0.58692    0.31901    0.95630    1.000
    N3434    N        0.56790    0.34112    0.88504    1.000
    N3435    N        0.63110    0.33406    0.91133    1.000
    Si3436   Si       0.62524    0.34226    0.95508    1.000
    Si3437   Si       0.69560    0.33348    0.97711    1.000
    Si3438   Si       0.65102    0.33616    0.87374    1.000
    N3439    N        0.71389    0.31213    0.94518    1.000
    N3440    N        0.65304    0.33422    0.98746    1.000
    Si3441   Si       0.55811    0.39693    0.02593    1.000
    N3442    N        0.60030    0.39866    0.03889    1.000
    Si3443   Si       0.54513    0.37977    0.09386    1.000
    N3444    N        0.59256    0.37371    0.10107    1.000
    N3445    N        0.52839    0.41940    0.09546    1.000
    N3446    N        0.54182    0.36676    0.05199    1.000
    N3447    N        0.65862    0.41482    0.00807    1.000
    Si3448   Si       0.62274    0.37791    0.06932    1.000
    N3449    N        0.71414    0.39149    0.04956    1.000
    N3450    N        0.65087    0.41168    0.07824    1.000
    Si3451   Si       0.73704    0.36776    0.07743    1.000
    Si3452   Si       0.74071    0.38637    0.01379    1.000
    Si3453   Si       0.68031    0.41923    0.04685    1.000
    Si3454   Si       0.54371    0.41531    0.20307    1.000
    N3455    N        0.54488    0.37975    0.22880    1.000
    N3456    N        0.52603    0.40135    0.16586    1.000
    Si3457   Si       0.50692    0.36281    0.15848    1.000
    Si3458   Si       0.61422    0.37328    0.13781    1.000
    N3459    N        0.61151    0.36600    0.24523    1.000
    Si3460   Si       0.68062    0.40058    0.23249    1.000
    N3461    N        0.69155    0.41275    0.13645    1.000
    Si3462   Si       0.68164    0.37501    0.15755    1.000
    N3463    N        0.72302    0.41396    0.23654    1.000
    N3464    N        0.66351    0.37985    0.19707    1.000
    N3465    N        0.62321    0.41836    0.14521    1.000
    N3466    N        0.72078    0.36120    0.16026    1.000
    Si3467   Si       0.52591    0.39085    0.31919    1.000
    N3468    N        0.54406    0.38943    0.35881    1.000
    Si3469   Si       0.57574    0.38390    0.26313    1.000
    N3470    N        0.55649    0.36714    0.29942    1.000
    N3471    N        0.61425    0.41547    0.34832    1.000
    N3472    N        0.68194    0.37626    0.34471    1.000
    Si3473   Si       0.63788    0.37787    0.35068    1.000
    N3474    N        0.67788    0.36971    0.26474    1.000
    Si3475   Si       0.70324    0.41421    0.34412    1.000
    Si3476   Si       0.73901    0.40887    0.27645    1.000
    Si3477   Si       0.57622    0.41614    0.37302    1.000
    N3478    N        0.55562    0.38855    0.48339    1.000
    N3479    N        0.58320    0.39988    0.41366    1.000
    N3480    N        0.51766    0.39952    0.42504    1.000
    Si3481   Si       0.55596    0.41024    0.44586    1.000
    Si3482   Si       0.53602    0.36821    0.39653    1.000
    Si3483   Si       0.52121    0.36597    0.49400    1.000
    Si3484   Si       0.60333    0.35963    0.41762    1.000
    N3485    N        0.70074    0.41278    0.41935    1.000
    Si3486   Si       0.67902    0.37112    0.41647    1.000
    N3487    N        0.64028    0.36725    0.39425    1.000
    N3488    N        0.67993    0.36423    0.46222    1.000
    Si3489   Si       0.52572    0.41061    0.54816    1.000
    N3490    N        0.52987    0.40883    0.59172    1.000
    Si3491   Si       0.57039    0.40757    0.61158    1.000
    Si3492   Si       0.50084    0.38446    0.61201    1.000
    Si3493   Si       0.58768    0.41307    0.50410    1.000
    N3494    N        0.58667    0.36623    0.60734    1.000
    N3495    N        0.52191    0.36824    0.53705    1.000
    N3496    N        0.66717    0.39704    0.60868    1.000
    N3497    N        0.68720    0.37722    0.53699    1.000
    Si3498   Si       0.68602    0.40692    0.56895    1.000
    N3499    N        0.72986    0.40363    0.57659    1.000
    N3500    N        0.62111    0.38498    0.50496    1.000
    Si3501   Si       0.73484    0.36825    0.55178    1.000
    Si3502   Si       0.66401    0.38661    0.49892    1.000
    N3503    N        0.53113    0.37805    0.70937    1.000
    Si3504   Si       0.51987    0.40611    0.67572    1.000
    N3505    N        0.55778    0.41572    0.65427    1.000
    N3506    N        0.48937    0.38466    0.65497    1.000
    Si3507   Si       0.60677    0.36029    0.73888    1.000
    Si3508   Si       0.66444    0.40438    0.70785    1.000
    Si3509   Si       0.69487    0.39004    0.64076    1.000
    N3510    N        0.67382    0.37424    0.67448    1.000
    N3511    N        0.69536    0.39923    0.73795    1.000
    N3512    N        0.62569    0.39777    0.72663    1.000
    Si3513   Si       0.51230    0.39542    0.83089    1.000
    N3514    N        0.55916    0.38200    0.83343    1.000
    Si3515   Si       0.57768    0.40337    0.79998    1.000
    N3516    N        0.57327    0.37387    0.76356    1.000
    N3517    N        0.52746    0.40849    0.78758    1.000
    Si3518   Si       0.53136    0.38096    0.75327    1.000
    N3519    N        0.62366    0.40102    0.81098    1.000
    Si3520   Si       0.73577    0.42034    0.74825    1.000
    N3521    N        0.68466    0.36035    0.80164    1.000
    N3522    N        0.68522    0.36387    0.87009    1.000
    Si3523   Si       0.63946    0.35989    0.80461    1.000
    Si3524   Si       0.70270    0.36354    0.76294    1.000
    N3525    N        0.50732    0.39684    0.87774    1.000
    Si3526   Si       0.54078    0.37383    0.89861    1.000
    N3527    N        0.55412    0.38010    0.98666    1.000
    Si3528   Si       0.57914    0.40050    0.95677    1.000
    N3529    N        0.56468    0.40513    0.91649    1.000
    Si3530   Si       0.51842    0.36338    0.97448    1.000
    N3531    N        0.48951    0.39537    0.98090    1.000
    N3532    N        0.61956    0.38497    0.95771    1.000
    Si3533   Si       0.72615    0.40128    0.95642    1.000
    Si3534   Si       0.68917    0.40038    0.89320    1.000
    N3535    N        0.73051    0.41223    0.89286    1.000
    Si3536   Si       0.65645    0.40672    0.96445    1.000
    N3537    N        0.68778    0.39263    0.93859    1.000
    N3538    N        0.72855    0.36167    0.97857    1.000
    Si3539   Si       0.52388    0.45321    0.06671    1.000
    N3540    N        0.54412    0.43653    0.03275    1.000
    Si3541   Si       0.55428    0.46520    0.99772    1.000
    Si3542   Si       0.61382    0.42962    0.01345    1.000
    N3543    N        0.69244    0.46005    0.04269    1.000
    N3544    N        0.62718    0.47005    0.01999    1.000
    Si3545   Si       0.65504    0.42804    0.11738    1.000
    Si3546   Si       0.66756    0.46274    0.00209    1.000
    N3547    N        0.66790    0.46895    0.11937    1.000
    N3548    N        0.49631    0.46071    0.14460    1.000
    N3549    N        0.58610    0.42804    0.20224    1.000
    Si3550   Si       0.59680    0.44737    0.16528    1.000
    N3551    N        0.51769    0.44949    0.21464    1.000
    N3552    N        0.56661    0.45594    0.13592    1.000
    Si3553   Si       0.52869    0.43451    0.13594    1.000
    Si3554   Si       0.60911    0.44335    0.23738    1.000
    Si3555   Si       0.50205    0.47852    0.24528    1.000
    Si3556   Si       0.70528    0.45958    0.14227    1.000
    N3557    N        0.65378    0.43564    0.23116    1.000
    Si3558   Si       0.67991    0.46751    0.21675    1.000
    N3559    N        0.70911    0.45274    0.18763    1.000
    Si3560   Si       0.55722    0.46057    0.28637    1.000
    N3561    N        0.52589    0.43501    0.30734    1.000
    N3562    N        0.57988    0.42699    0.26758    1.000
    N3563    N        0.55687    0.45640    0.37142    1.000
    N3564    N        0.69454    0.48046    0.25532    1.000
    N3565    N        0.67692    0.44288    0.36342    1.000
    Si3566   Si       0.63747    0.45095    0.34554    1.000
    Si3567   Si       0.68677    0.46420    0.29367    1.000
    N3568    N        0.70776    0.42656    0.30073    1.000
    N3569    N        0.64458    0.46875    0.30520    1.000
    N3570    N        0.60484    0.44223    0.47488    1.000
    Si3571   Si       0.50508    0.44152    0.43136    1.000
    N3572    N        0.54383    0.45177    0.45211    1.000
    N3573    N        0.49783    0.46979    0.40024    1.000
    Si3574   Si       0.57715    0.47369    0.46548    1.000
    Si3575   Si       0.70936    0.42540    0.45948    1.000
    Si3576   Si       0.68412    0.45220    0.40490    1.000
    N3577    N        0.67422    0.43072    0.48804    1.000
    N3578    N        0.65115    0.46589    0.42984    1.000
    N3579    N        0.73078    0.46388    0.46664    1.000
    Si3580   Si       0.64488    0.45851    0.47204    1.000
    N3581    N        0.59986    0.44063    0.60222    1.000
    N3582    N        0.55906    0.43397    0.53227    1.000
    Si3583   Si       0.55179    0.47707    0.53140    1.000
    Si3584   Si       0.58289    0.48177    0.60414    1.000
    N3585    N        0.65914    0.43952    0.55980    1.000
    Si3586   Si       0.64228    0.43808    0.60089    1.000
    Si3587   Si       0.67548    0.45874    0.52540    1.000
    N3588    N        0.71462    0.47204    0.53309    1.000
    Si3589   Si       0.56153    0.45301    0.67501    1.000
    N3590    N        0.51299    0.45131    0.68198    1.000
    N3591    N        0.58484    0.45728    0.70956    1.000
    Si3592   Si       0.60734    0.43572    0.74019    1.000
    Si3593   Si       0.67693    0.46881    0.73034    1.000
    N3594    N        0.66342    0.46631    0.62492    1.000
    N3595    N        0.71581    0.42706    0.64849    1.000
    Si3596   Si       0.68994    0.45967    0.65979    1.000
    N3597    N        0.66881    0.44590    0.69503    1.000
    N3598    N        0.71822    0.46055    0.74145    1.000
    N3599    N        0.58427    0.44817    0.77994    1.000
    N3600    N        0.58911    0.43726    0.85459    1.000
    Si3601   Si       0.54859    0.47389    0.77882    1.000
    Si3602   Si       0.56149    0.47172    0.84240    1.000
    N3603    N        0.52820    0.47400    0.81614    1.000
    N3604    N        0.51681    0.46396    0.75109    1.000
    Si3605   Si       0.49297    0.43513    0.77790    1.000
    N3606    N        0.64827    0.46329    0.82502    1.000
    Si3607   Si       0.63113    0.42925    0.84455    1.000
    N3608    N        0.64198    0.45711    0.75527    1.000
    Si3609   Si       0.62061    0.47414    0.79201    1.000
    N3610    N        0.71085    0.47502    0.85996    1.000
    Si3611   Si       0.74080    0.47587    0.77760    1.000
    Si3612   Si       0.57582    0.44066    0.89565    1.000
    Si3613   Si       0.50346    0.47041    0.90001    1.000
    N3614    N        0.58439    0.43685    0.98254    1.000
    N3615    N        0.51368    0.46610    0.98138    1.000
    N3616    N        0.60421    0.46762    0.91360    1.000
    N3617    N        0.54263    0.46524    0.88325    1.000
    N3618    N        0.65453    0.42769    0.88347    1.000
    N3619    N        0.65617    0.44970    0.95578    1.000
    Si3620   Si       0.64686    0.45980    0.91298    1.000
    N3621    N        0.72687    0.42548    0.99207    1.000
    N3622    N        0.74003    0.47667    0.92625    1.000
    N3623    N        0.56570    0.50402    0.02326    1.000
    Si3624   Si       0.54218    0.52383    0.05493    1.000
    Si3625   Si       0.57362    0.49083    0.11169    1.000
    Si3626   Si       0.60525    0.50098    0.04250    1.000
    N3627    N        0.60881    0.49681    0.08695    1.000
    N3628    N        0.54185    0.48945    0.08196    1.000
    Si3629   Si       0.70818    0.49609    0.05722    1.000
    N3630    N        0.67216    0.51835    0.06846    1.000
    Si3631   Si       0.64908    0.50524    0.10139    1.000
    N3632    N        0.72834    0.51394    0.02506    1.000
    N3633    N        0.61838    0.53967    0.02419    1.000
    N3634    N        0.60258    0.48865    0.17766    1.000
    N3635    N        0.54231    0.52205    0.20505    1.000
    N3636    N        0.56654    0.52750    0.13308    1.000
    Si3637   Si       0.49881    0.53335    0.19899    1.000
    Si3638   Si       0.57692    0.52645    0.17498    1.000
    N3639    N        0.66463    0.50587    0.19749    1.000
    N3640    N        0.61250    0.48578    0.24502    1.000
    Si3641   Si       0.62428    0.50822    0.20992    1.000
    N3642    N        0.71378    0.50675    0.14801    1.000
    Si3643   Si       0.67837    0.52769    0.16224    1.000
    Si3644   Si       0.54134    0.52048    0.30859    1.000
    N3645    N        0.53223    0.49670    0.27253    1.000
    Si3646   Si       0.58117    0.48674    0.35105    1.000
    N3647    N        0.49432    0.49212    0.33418    1.000
    N3648    N        0.58330    0.48602    0.30861    1.000
    N3649    N        0.54944    0.51729    0.35401    1.000
    Si3650   Si       0.52136    0.48725    0.36875    1.000
    Si3651   Si       0.61852    0.49711    0.28528    1.000
    N3652    N        0.71074    0.49815    0.31261    1.000
    Si3653   Si       0.72070    0.51136    0.27201    1.000
    N3654    N        0.61896    0.48216    0.36877    1.000
    N3655    N        0.62990    0.53984    0.28144    1.000
    N3656    N        0.59187    0.50102    0.43267    1.000
    N3657    N        0.49705    0.53122    0.38728    1.000
    N3658    N        0.71030    0.48772    0.40850    1.000
    N3659    N        0.65336    0.53323    0.40686    1.000
    Si3660   Si       0.62871    0.49747    0.40914    1.000
    Si3661   Si       0.69595    0.52862    0.40447    1.000
    Si3662   Si       0.53036    0.52329    0.58732    1.000
    N3663    N        0.55385    0.48882    0.57355    1.000
    N3664    N        0.51314    0.48984    0.51428    1.000
    N3665    N        0.57546    0.49860    0.49974    1.000
    N3666    N        0.48955    0.51828    0.57220    1.000
    N3667    N        0.61576    0.51133    0.59937    1.000
    Si3668   Si       0.65566    0.53328    0.51210    1.000
    Si3669   Si       0.72349    0.51462    0.54150    1.000
    N3670    N        0.68811    0.52701    0.60541    1.000
    N3671    N        0.65314    0.49046    0.50429    1.000
    N3672    N        0.54195    0.51339    0.70226    1.000
    Si3673   Si       0.55059    0.52074    0.65988    1.000
    N3674    N        0.52213    0.53179    0.62854    1.000
    N3675    N        0.56607    0.48366    0.64473    1.000
    Si3676   Si       0.54193    0.53855    0.73689    1.000
    Si3677   Si       0.51341    0.48336    0.71194    1.000
    N3678    N        0.65159    0.52905    0.66258    1.000
    Si3679   Si       0.65186    0.50929    0.62380    1.000
    N3680    N        0.67369    0.51152    0.72638    1.000
    N3681    N        0.71050    0.49562    0.67246    1.000
    Si3682   Si       0.68581    0.52786    0.68872    1.000
    N3683    N        0.56032    0.51471    0.76707    1.000
    Si3684   Si       0.50163    0.50253    0.83784    1.000
    Si3685   Si       0.58820    0.52832    0.79656    1.000
    N3686    N        0.59001    0.49723    0.82463    1.000
    N3687    N        0.52413    0.53443    0.85568    1.000
    N3688    N        0.62699    0.51638    0.77905    1.000
    N3689    N        0.70981    0.49701    0.79647    1.000
    Si3690   Si       0.68265    0.48940    0.82931    1.000
    N3691    N        0.67628    0.53321    0.83587    1.000
    Si3692   Si       0.64962    0.54090    0.74987    1.000
    Si3693   Si       0.58905    0.52838    0.98818    1.000
    N3694    N        0.50810    0.50673    0.92113    1.000
    Si3695   Si       0.59129    0.50453    0.92803    1.000
    N3696    N        0.56304    0.50113    0.96176    1.000
    Si3697   Si       0.51906    0.50460    0.96246    1.000
    N3698    N        0.57473    0.53335    0.90193    1.000
    N3699    N        0.50207    0.53771    0.98512    1.000
    Si3700   Si       0.66137    0.51859    0.94910    1.000
    N3701    N        0.66961    0.49723    0.91166    1.000
    Si3702   Si       0.71198    0.49684    0.89709    1.000
    Si3703   Si       0.71116    0.53397    0.99073    1.000
    N3704    N        0.62002    0.52619    0.95378    1.000
    N3705    N        0.68033    0.50235    0.98551    1.000
    N3706    N        0.72952    0.53587    0.89229    1.000
    Si3707   Si       0.56412    0.56418    0.10941    1.000
    N3708    N        0.56874    0.55862    0.06576    1.000
    N3709    N        0.52288    0.57906    0.11181    1.000
    Si3710   Si       0.49797    0.57767    0.07629    1.000
    Si3711   Si       0.60123    0.57969    0.04481    1.000
    N3712    N        0.59485    0.59237    0.11823    1.000
    N3713    N        0.50089    0.53976    0.05557    1.000
    N3714    N        0.69220    0.56961    0.01465    1.000
    Si3715   Si       0.63387    0.57429    0.11299    1.000
    N3716    N        0.64117    0.58361    0.06493    1.000
    Si3717   Si       0.65934    0.54993    0.04040    1.000
    Si3718   Si       0.72454    0.59159    0.03227    1.000
    Si3719   Si       0.50981    0.58459    0.15187    1.000
    N3720    N        0.54445    0.58068    0.18021    1.000
    N3721    N        0.49976    0.56595    0.23170    1.000
    Si3722   Si       0.54312    0.56207    0.22386    1.000
    N3723    N        0.60689    0.54631    0.19735    1.000
    Si3724   Si       0.61095    0.58386    0.21770    1.000
    N3725    N        0.64887    0.53833    0.13027    1.000
    Si3726   Si       0.73147    0.57972    0.23970    1.000
    N3727    N        0.65009    0.58905    0.23846    1.000
    N3728    N        0.69185    0.56895    0.17343    1.000
    Si3729   Si       0.73364    0.58369    0.16608    1.000
    Si3730   Si       0.59803    0.56962    0.28547    1.000
    Si3731   Si       0.56528    0.55830    0.35817    1.000
    N3732    N        0.57170    0.55809    0.31629    1.000
    N3733    N        0.50771    0.55077    0.30565    1.000
    N3734    N        0.53434    0.58956    0.36985    1.000
    N3735    N        0.57816    0.57386    0.24754    1.000
    N3736    N        0.70801    0.54317    0.36518    1.000
    N3737    N        0.70636    0.55114    0.25842    1.000
    Si3738   Si       0.71321    0.57535    0.33429    1.000
    Si3739   Si       0.66723    0.56386    0.27028    1.000
    N3740    N        0.67648    0.58022    0.31025    1.000
    N3741    N        0.53750    0.56186    0.43723    1.000
    N3742    N        0.59158    0.55667    0.39237    1.000
    N3743    N        0.59217    0.56113    0.46918    1.000
    Si3744   Si       0.51183    0.56830    0.40171    1.000
    Si3745   Si       0.54282    0.58737    0.47354    1.000
    Si3746   Si       0.57665    0.54323    0.43220    1.000
    N3747    N        0.71400    0.55693    0.43333    1.000
    Si3748   Si       0.63295    0.56835    0.39419    1.000
    Si3749   Si       0.68341    0.58563    0.44810    1.000
    N3750    N        0.65742    0.55984    0.47746    1.000
    Si3751   Si       0.62569    0.58976    0.46851    1.000
    N3752    N        0.56106    0.55212    0.57387    1.000
    Si3753   Si       0.54731    0.58430    0.54842    1.000
    N3754    N        0.54431    0.56198    0.51048    1.000
    Si3755   Si       0.60430    0.54524    0.57360    1.000
    Si3756   Si       0.58155    0.53895    0.50719    1.000
    N3757    N        0.61739    0.54332    0.53231    1.000
    N3758    N        0.61993    0.57932    0.59479    1.000
    Si3759   Si       0.70232    0.58191    0.55379    1.000
    N3760    N        0.72085    0.58555    0.59441    1.000
    Si3761   Si       0.72707    0.54352    0.60999    1.000
    N3762    N        0.69098    0.54348    0.53493    1.000
    Si3763   Si       0.49604    0.56593    0.63928    1.000
    Si3764   Si       0.59312    0.58680    0.62885    1.000
    Si3765   Si       0.59833    0.59179    0.74165    1.000
    N3766    N        0.55879    0.57892    0.72700    1.000
    N3767    N        0.58028    0.55397    0.65526    1.000
    N3768    N        0.49759    0.56895    0.68429    1.000
    N3769    N        0.50034    0.54205    0.74712    1.000
    Si3770   Si       0.52533    0.59784    0.70719    1.000
    N3771    N        0.62317    0.59577    0.65808    1.000
    N3772    N        0.70203    0.56739    0.69822    1.000
    N3773    N        0.62441    0.56050    0.71970    1.000
    Si3774   Si       0.61968    0.55641    0.67713    1.000
    N3775    N        0.57489    0.56668    0.81005    1.000
    N3776    N        0.51201    0.58305    0.80226    1.000
    Si3777   Si       0.53818    0.57132    0.83434    1.000
    N3778    N        0.55753    0.59133    0.86894    1.000
    Si3779   Si       0.60584    0.59604    0.81776    1.000
    N3780    N        0.62165    0.57390    0.85423    1.000
    N3781    N        0.68167    0.56106    0.77441    1.000
    Si3782   Si       0.66382    0.57250    0.85208    1.000
    Si3783   Si       0.70463    0.54078    0.80536    1.000
    N3784    N        0.62283    0.59696    0.77785    1.000
    N3785    N        0.56662    0.56398    0.97646    1.000
    Si3786   Si       0.59303    0.57022    0.88654    1.000
    Si3787   Si       0.52463    0.57023    0.96703    1.000
    N3788    N        0.51468    0.57100    0.92476    1.000
    Si3789   Si       0.59835    0.58863    0.95871    1.000
    N3790    N        0.61506    0.58977    0.91952    1.000
    Si3791   Si       0.53018    0.53785    0.89901    1.000
    N3792    N        0.67975    0.58470    0.89060    1.000
    N3793    N        0.63100    0.59401    0.98828    1.000
    Si3794   Si       0.71084    0.56769    0.91566    1.000
    Si3795   Si       0.67139    0.58763    0.97751    1.000
    N3796    N        0.68473    0.55507    0.95119    1.000
    N3797    N        0.58906    0.62201    0.03314    1.000
    N3798    N        0.55912    0.64471    0.08576    1.000
    Si3799   Si       0.51790    0.64545    0.07006    1.000
    N3800    N        0.50216    0.61083    0.05121    1.000
    Si3801   Si       0.61438    0.63166    0.99911    1.000
    N3802    N        0.70508    0.62257    0.05818    1.000
    Si3803   Si       0.66596    0.61910    0.07631    1.000
    N3804    N        0.66310    0.60752    0.11915    1.000
    Si3805   Si       0.57810    0.63348    0.12231    1.000
    N3806    N        0.54682    0.64198    0.15182    1.000
    N3807    N        0.52462    0.62950    0.22009    1.000
    N3808    N        0.59839    0.62095    0.19891    1.000
    Si3809   Si       0.55659    0.62486    0.18988    1.000
    N3810    N        0.61302    0.65421    0.13889    1.000
    Si3811   Si       0.50449    0.65497    0.14455    1.000
    Si3812   Si       0.68195    0.60736    0.15641    1.000
    N3813    N        0.72367    0.62459    0.15211    1.000
    Si3814   Si       0.62611    0.64868    0.17964    1.000
    N3815    N        0.66859    0.63446    0.18818    1.000
    Si3816   Si       0.67336    0.62626    0.23140    1.000
    N3817    N        0.71384    0.61972    0.23986    1.000
    Si3818   Si       0.58241    0.64100    0.30282    1.000
    N3819    N        0.56248    0.64527    0.34032    1.000
    N3820    N        0.61109    0.60869    0.30059    1.000
    N3821    N        0.72556    0.61355    0.35211    1.000
    Si3822   Si       0.64753    0.60950    0.32412    1.000
    N3823    N        0.67056    0.64802    0.31789    1.000
    Si3824   Si       0.71060    0.65130    0.33327    1.000
    N3825    N        0.64010    0.60102    0.36711    1.000
    Si3826   Si       0.54846    0.63147    0.37846    1.000
    N3827    N        0.58262    0.63473    0.40487    1.000
    N3828    N        0.56319    0.62600    0.47123    1.000
    N3829    N        0.52153    0.64604    0.41416    1.000
    N3830    N        0.50162    0.60429    0.47622    1.000
    Si3831   Si       0.55949    0.65325    0.43778    1.000
    Si3832   Si       0.49126    0.62261    0.43786    1.000
    N3833    N        0.62763    0.62366    0.49535    1.000
    N3834    N        0.69731    0.61018    0.48120    1.000
    N3835    N        0.70981    0.62759    0.42171    1.000
    Si3836   Si       0.62603    0.63004    0.39721    1.000
    Si3837   Si       0.71091    0.64800    0.46396    1.000
    N3838    N        0.64259    0.59783    0.42784    1.000
    N3839    N        0.57307    0.61762    0.54181    1.000
    Si3840   Si       0.57783    0.64057    0.57892    1.000
    N3841    N        0.56815    0.61903    0.61578    1.000
    Si3842   Si       0.58737    0.63885    0.50557    1.000
    N3843    N        0.50805    0.60001    0.55085    1.000
    N3844    N        0.62026    0.64724    0.57969    1.000
    Si3845   Si       0.64648    0.61449    0.58496    1.000
    Si3846   Si       0.66770    0.63127    0.51003    1.000
    N3847    N        0.67065    0.61085    0.54889    1.000
    Si3848   Si       0.71089    0.62156    0.61943    1.000
    N3849    N        0.73657    0.64633    0.59384    1.000
    N3850    N        0.66868    0.62865    0.62130    1.000
    N3851    N        0.50409    0.60524    0.62113    1.000
    N3852    N        0.49603    0.61702    0.73436    1.000
    Si3853   Si       0.53385    0.63322    0.63986    1.000
    N3854    N        0.54519    0.63058    0.68129    1.000
    N3855    N        0.60623    0.63012    0.72351    1.000
    Si3856   Si       0.58090    0.65468    0.69633    1.000
    N3857    N        0.67092    0.63140    0.69232    1.000
    Si3858   Si       0.64851    0.64534    0.72816    1.000
    N3859    N        0.72796    0.61754    0.65857    1.000
    Si3860   Si       0.70920    0.61092    0.69770    1.000
    Si3861   Si       0.64589    0.63227    0.65852    1.000
    N3862    N        0.59555    0.63661    0.83375    1.000
    Si3863   Si       0.50525    0.62062    0.78009    1.000
    Si3864   Si       0.56442    0.63369    0.86420    1.000
    N3865    N        0.52839    0.65201    0.85139    1.000
    N3866    N        0.53688    0.65053    0.77881    1.000
    Si3867   Si       0.71921    0.64414    0.76101    1.000
    Si3868   Si       0.66989    0.64857    0.84169    1.000
    N3869    N        0.67915    0.62938    0.75657    1.000
    N3870    N        0.67111    0.60827    0.82700    1.000
    N3871    N        0.73610    0.62117    0.79403    1.000
    Si3872   Si       0.66641    0.60000    0.78408    1.000
    N3873    N        0.58671    0.63012    0.96511    1.000
    N3874    N        0.50991    0.60787    0.97945    1.000
    N3875    N        0.56304    0.65608    0.90202    1.000
    N3876    N        0.67629    0.62116    0.94774    1.000
    Si3877   Si       0.65361    0.61166    0.91165    1.000
    Si3878   Si       0.71601    0.63508    0.94499    1.000
    N3879    N        0.65262    0.64587    0.88233    1.000
    N3880    N        0.73871    0.60112    0.92851    1.000
    N3881    N        0.59086    0.69625    0.04990    1.000
    N3882    N        0.52560    0.67304    0.03810    1.000
    Si3883   Si       0.56997    0.65925    0.04729    1.000
    N3884    N        0.49232    0.65333    0.10204    1.000
    N3885    N        0.62026    0.71596    0.10753    1.000
    N3886    N        0.70316    0.69085    0.03753    1.000
    Si3887   Si       0.63544    0.68515    0.04432    1.000
    N3888    N        0.72746    0.67638    0.10015    1.000
    Si3889   Si       0.64020    0.67749    0.11474    1.000
    N3890    N        0.63794    0.66841    0.00371    1.000
    Si3891   Si       0.72515    0.66097    0.05917    1.000
    N3892    N        0.64559    0.65837    0.07623    1.000
    N3893    N        0.49410    0.69346    0.16021    1.000
    N3894    N        0.55092    0.69471    0.20705    1.000
    Si3895   Si       0.53167    0.66892    0.23609    1.000
    Si3896   Si       0.59171    0.71019    0.20374    1.000
    Si3897   Si       0.70218    0.66233    0.17318    1.000
    Si3898   Si       0.70942    0.70841    0.13221    1.000
    N3899    N        0.67564    0.68354    0.14224    1.000
    Si3900   Si       0.66227    0.69550    0.22339    1.000
    N3901    N        0.70312    0.68711    0.20840    1.000
    N3902    N        0.62657    0.68637    0.19779    1.000
    N3903    N        0.73885    0.68475    0.15986    1.000
    Si3904   Si       0.54258    0.68366    0.33727    1.000
    Si3905   Si       0.58165    0.70216    0.28035    1.000
    N3906    N        0.50309    0.67384    0.32055    1.000
    N3907    N        0.55799    0.66486    0.26964    1.000
    N3908    N        0.61165    0.67486    0.30410    1.000
    Si3909   Si       0.65225    0.67615    0.29262    1.000
    N3910    N        0.71400    0.67550    0.37024    1.000
    N3911    N        0.65937    0.66147    0.25208    1.000
    N3912    N        0.73374    0.66284    0.29674    1.000
    N3913    N        0.53679    0.69838    0.37695    1.000
    Si3914   Si       0.50431    0.68620    0.40358    1.000
    N3915    N        0.57467    0.69459    0.43407    1.000
    Si3916   Si       0.59529    0.70685    0.47119    1.000
    N3917    N        0.49888    0.71576    0.43360    1.000
    N3918    N        0.70287    0.68948    0.44150    1.000
    N3919    N        0.63619    0.70779    0.45696    1.000
    N3920    N        0.64993    0.66704    0.40395    1.000
    Si3921   Si       0.69376    0.66610    0.40650    1.000
    Si3922   Si       0.63264    0.70846    0.41302    1.000
    Si3923   Si       0.67729    0.71102    0.47036    1.000
    N3924    N        0.55703    0.67825    0.57107    1.000
    Si3925   Si       0.51556    0.68787    0.59036    1.000
    Si3926   Si       0.57981    0.70133    0.54359    1.000
    N3927    N        0.58356    0.68176    0.50587    1.000
    Si3928   Si       0.64070    0.68525    0.58315    1.000
    N3929    N        0.68134    0.68100    0.56797    1.000
    Si3930   Si       0.69614    0.69627    0.53066    1.000
    Si3931   Si       0.72329    0.68632    0.58362    1.000
    N3932    N        0.62096    0.71089    0.55446    1.000
    N3933    N        0.64592    0.70366    0.62073    1.000
    N3934    N        0.68618    0.67119    0.49684    1.000
    N3935    N        0.73894    0.69891    0.54158    1.000
    N3936    N        0.51644    0.67143    0.63297    1.000
    N3937    N        0.49606    0.70297    0.70038    1.000
    N3938    N        0.57113    0.69047    0.71971    1.000
    Si3939   Si       0.48615    0.68608    0.66170    1.000
    Si3940   Si       0.63539    0.70075    0.66217    1.000
    N3941    N        0.61512    0.66346    0.66778    1.000
    N3942    N        0.67116    0.69869    0.68528    1.000
    Si3943   Si       0.69954    0.71136    0.71439    1.000
    N3944    N        0.58413    0.69364    0.79363    1.000
    Si3945   Si       0.54071    0.69178    0.78920    1.000
    N3946    N        0.50647    0.70523    0.81731    1.000
    N3947    N        0.60257    0.69971    0.86398    1.000
    Si3948   Si       0.60733    0.67894    0.82625    1.000
    Si3949   Si       0.59949    0.70267    0.75314    1.000
    Si3950   Si       0.49265    0.66731    0.83418    1.000
    N3951    N        0.64949    0.67680    0.81484    1.000
    Si3952   Si       0.66574    0.69453    0.77855    1.000
    N3953    N        0.70882    0.66767    0.84455    1.000
    N3954    N        0.70829    0.68853    0.75869    1.000
    Si3955   Si       0.74466    0.70760    0.77910    1.000
    N3956    N        0.63793    0.68396    0.74698    1.000
    N3957    N        0.51972    0.70992    0.88360    1.000
    Si3958   Si       0.51638    0.70205    0.95298    1.000
    N3959    N        0.56013    0.69858    0.95488    1.000
    Si3960   Si       0.58229    0.66553    0.93917    1.000
    N3961    N        0.50795    0.66423    0.93570    1.000
    Si3962   Si       0.52078    0.66811    0.89359    1.000
    N3963    N        0.72251    0.66098    0.90994    1.000
    N3964    N        0.73640    0.66607    0.97162    1.000
    N3965    N        0.66797    0.70950    0.88874    1.000
    Si3966   Si       0.70645    0.68889    0.88290    1.000
    Si3967   Si       0.64580    0.69376    0.96943    1.000
    Si3968   Si       0.71657    0.69935    0.99633    1.000
    Si3969   Si       0.63385    0.68473    0.89254    1.000
    N3970    N        0.62316    0.67997    0.93447    1.000
    N3971    N        0.68535    0.71372    0.97040    1.000
    N3972    N        0.56838    0.75332    0.09946    1.000
    Si3973   Si       0.59946    0.73407    0.07050    1.000
    N3974    N        0.59970    0.76308    0.03782    1.000
    Si3975   Si       0.63368    0.74943    0.01353    1.000
    N3976    N        0.68929    0.73769    0.10153    1.000
    N3977    N        0.71610    0.76130    0.04813    1.000
    N3978    N        0.64888    0.72578    0.04469    1.000
    Si3979   Si       0.69078    0.72725    0.05905    1.000
    N3980    N        0.66763    0.77374    0.99986    1.000
    Si3981   Si       0.60197    0.74719    0.13017    1.000
    N3982    N        0.59133    0.74207    0.17310    1.000
    N3983    N        0.52761    0.75729    0.16681    1.000
    Si3984   Si       0.51801    0.71922    0.18769    1.000
    N3985    N        0.49419    0.73461    0.21942    1.000
    Si3986   Si       0.69852    0.76403    0.23061    1.000
    N3987    N        0.71915    0.74173    0.16259    1.000
    N3988    N        0.66334    0.74025    0.22217    1.000
    N3989    N        0.73492    0.74129    0.22834    1.000
    Si3990   Si       0.73801    0.71431    0.19363    1.000
    Si3991   Si       0.57032    0.75910    0.32614    1.000
    N3992    N        0.56330    0.71675    0.31672    1.000
    N3993    N        0.59828    0.72151    0.24488    1.000
    N3994    N        0.67680    0.74869    0.34285    1.000
    Si3995   Si       0.68744    0.74327    0.30108    1.000
    N3996    N        0.72961    0.73144    0.29681    1.000
    Si3997   Si       0.63397    0.74333    0.25279    1.000
    Si3998   Si       0.63830    0.75638    0.36689    1.000
    N3999    N        0.65734    0.71859    0.28263    1.000
    N4000    N        0.58563    0.74874    0.47656    1.000
    N4001    N        0.55834    0.76239    0.41029    1.000
    N4002    N        0.60712    0.72124    0.38043    1.000
    Si4003   Si       0.56825    0.72171    0.39832    1.000
    Si4004   Si       0.49410    0.75844    0.44041    1.000
    Si4005   Si       0.68459    0.77401    0.42340    1.000
    Si4006   Si       0.73596    0.72390    0.44380    1.000
    N4007    N        0.65457    0.74576    0.40634    1.000
    N4008    N        0.69870    0.74867    0.45753    1.000
    N4009    N        0.56287    0.74164    0.54064    1.000
    Si4010   Si       0.53021    0.76042    0.56052    1.000
    N4011    N        0.50692    0.72954    0.58214    1.000
    Si4012   Si       0.58036    0.77102    0.51456    1.000
    N4013    N        0.49882    0.77333    0.53208    1.000
    N4014    N        0.71498    0.72199    0.60754    1.000
    Si4015   Si       0.64349    0.74504    0.54471    1.000
    N4016    N        0.67532    0.73038    0.51544    1.000
    N4017    N        0.66128    0.75849    0.58108    1.000
    Si4018   Si       0.67564    0.73556    0.61576    1.000
    Si4019   Si       0.73794    0.76094    0.61443    1.000
    Si4020   Si       0.69717    0.76506    0.49840    1.000
    N4021    N        0.73569    0.76842    0.52051    1.000
    N4022    N        0.54947    0.75302    0.69843    1.000
    Si4023   Si       0.59266    0.75294    0.70235    1.000
    N4024    N        0.60751    0.73315    0.66728    1.000
    N4025    N        0.60869    0.74405    0.74075    1.000
    Si4026   Si       0.53577    0.71778    0.71810    1.000
    Si4027   Si       0.64764    0.76186    0.74696    1.000
    N4028    N        0.66495    0.75953    0.65205    1.000
    N4029    N        0.73060    0.76415    0.65945    1.000
    N4030    N        0.68419    0.75283    0.72123    1.000
    N4031    N        0.55179    0.75240    0.84700    1.000
    Si4032   Si       0.50898    0.73685    0.84697    1.000
    Si4033   Si       0.49516    0.73565    0.78255    1.000
    N4034    N        0.53149    0.72549    0.76157    1.000
    N4035    N        0.72408    0.72889    0.80963    1.000
    N4036    N        0.66107    0.73921    0.78300    1.000
    Si4037   Si       0.68938    0.75722    0.80820    1.000
    N4038    N        0.69024    0.76250    0.85201    1.000
    Si4039   Si       0.72887    0.74435    0.85094    1.000
    N4040    N        0.62487    0.76423    0.86395    1.000
    Si4041   Si       0.58559    0.74054    0.87201    1.000
    Si4042   Si       0.58412    0.73367    0.95568    1.000
    N4043    N        0.50932    0.74241    0.93756    1.000
    N4044    N        0.58525    0.75327    0.91483    1.000
    N4045    N        0.56170    0.76145    0.98217    1.000
    N4046    N        0.66703    0.77192    0.92561    1.000
    N4047    N        0.73923    0.72110    0.88605    1.000
    Si4048   Si       0.66316    0.75253    0.88357    1.000
    Si4049   Si       0.68435    0.75721    0.96290    1.000
    N4050    N        0.62146    0.72819    0.97738    1.000
    N4051    N        0.57909    0.82092    0.08487    1.000
    Si4052   Si       0.56882    0.78523    0.01810    1.000
    N4053    N        0.53389    0.78564    0.04374    1.000
    Si4054   Si       0.54901    0.78931    0.08641    1.000
    N4055    N        0.51875    0.80059    0.11362    1.000
    N4056    N        0.58168    0.82671    0.01147    1.000
    Si4057   Si       0.49314    0.78008    0.02998    1.000
    Si4058   Si       0.68707    0.78976    0.03278    1.000
    N4059    N        0.66718    0.80192    0.06884    1.000
    N4060    N        0.70627    0.82512    0.01488    1.000
    Si4061   Si       0.67116    0.77740    0.10560    1.000
    N4062    N        0.62888    0.77842    0.11952    1.000
    Si4063   Si       0.60591    0.81776    0.11833    1.000
    N4064    N        0.56240    0.79976    0.21482    1.000
    N4065    N        0.57658    0.80805    0.14943    1.000
    Si4066   Si       0.56452    0.77750    0.17834    1.000
    Si4067   Si       0.49939    0.77166    0.13897    1.000
    Si4068   Si       0.54082    0.83079    0.13825    1.000
    N4069    N        0.69048    0.79961    0.13636    1.000
    Si4070   Si       0.72051    0.78436    0.16233    1.000
    N4071    N        0.70506    0.79412    0.20119    1.000
    Si4072   Si       0.52077    0.79220    0.31061    1.000
    Si4073   Si       0.57914    0.79617    0.25564    1.000
    N4074    N        0.55400    0.77790    0.28700    1.000
    N4075    N        0.60469    0.77781    0.34443    1.000
    N4076    N        0.53705    0.77610    0.34715    1.000
    Si4077   Si       0.62156    0.81926    0.35204    1.000
    N4078    N        0.62067    0.78354    0.25968    1.000
    N4079    N        0.72883    0.80032    0.33644    1.000
    Si4080   Si       0.65280    0.80908    0.27208    1.000
    Si4081   Si       0.72305    0.80653    0.29362    1.000
    Si4082   Si       0.69722    0.78278    0.35961    1.000
    N4083    N        0.69003    0.77985    0.27653    1.000
    N4084    N        0.65944    0.80067    0.37133    1.000
    Si4085   Si       0.53132    0.79064    0.38746    1.000
    N4086    N        0.57610    0.81711    0.45052    1.000
    N4087    N        0.54672    0.83305    0.38661    1.000
    N4088    N        0.49041    0.78560    0.40536    1.000
    Si4089   Si       0.56280    0.77624    0.45018    1.000
    N4090    N        0.52259    0.77642    0.46665    1.000
    N4091    N        0.73474    0.82851    0.47716    1.000
    N4092    N        0.67796    0.81708    0.43377    1.000
    N4093    N        0.71858    0.77673    0.39721    1.000
    Si4094   Si       0.69295    0.83213    0.47315    1.000
    N4095    N        0.55680    0.80717    0.51665    1.000
    N4096    N        0.53228    0.79961    0.58023    1.000
    Si4097   Si       0.50709    0.81401    0.61082    1.000
    Si4098   Si       0.51378    0.80155    0.50251    1.000
    Si4099   Si       0.55244    0.82904    0.55629    1.000
    Si4100   Si       0.59475    0.82370    0.61913    1.000
    Si4101   Si       0.64258    0.81586    0.52392    1.000
    N4102    N        0.71280    0.79334    0.59879    1.000
    Si4103   Si       0.66805    0.79953    0.59517    1.000
    N4104    N        0.65498    0.82665    0.56331    1.000
    N4105    N        0.62162    0.77662    0.52905    1.000
    N4106    N        0.67705    0.80362    0.50158    1.000
    N4107    N        0.63425    0.80844    0.62207    1.000
    Si4108   Si       0.54231    0.78401    0.66493    1.000
    N4109    N        0.57910    0.78838    0.64209    1.000
    N4110    N        0.54224    0.82165    0.69078    1.000
    N4111    N        0.50618    0.77909    0.63885    1.000
    N4112    N        0.61746    0.78919    0.69231    1.000
    Si4113   Si       0.64345    0.81748    0.71294    1.000
    Si4114   Si       0.69236    0.77520    0.68307    1.000
    N4115    N        0.68470    0.81553    0.69779    1.000
    Si4116   Si       0.62244    0.77512    0.65098    1.000
    N4117    N        0.53280    0.81579    0.82113    1.000
    Si4118   Si       0.54093    0.79369    0.85651    1.000
    Si4119   Si       0.49897    0.80889    0.79614    1.000
    N4120    N        0.60633    0.81895    0.81893    1.000
    N4121    N        0.49900    0.82221    0.75484    1.000
    Si4122   Si       0.61442    0.80616    0.85909    1.000
    N4123    N        0.71676    0.78968    0.79512    1.000
    N4124    N        0.64562    0.80575    0.75650    1.000
    Si4125   Si       0.63960    0.83065    0.79065    1.000
    Si4126   Si       0.71816    0.83025    0.81282    1.000
    N4127    N        0.74154    0.83076    0.84964    1.000
    N4128    N        0.50515    0.78171    0.87896    1.000
    N4129    N        0.61120    0.82070    0.94417    1.000
    N4130    N        0.57594    0.80817    0.87855    1.000
    Si4131   Si       0.57997    0.79778    0.92073    1.000
    N4132    N        0.54567    0.80868    0.94250    1.000
    N4133    N        0.49427    0.78749    0.98475    1.000
    Si4134   Si       0.52615    0.77437    0.96023    1.000
    N4135    N        0.72243    0.77765    0.96207    1.000
    Si4136   Si       0.71286    0.81942    0.97290    1.000
    N4137    N        0.64730    0.82515    0.88116    1.000
    N4138    N        0.55429    0.87704    0.05028    1.000
    Si4139   Si       0.58534    0.84763    0.04968    1.000
    Si4140   Si       0.54033    0.88258    0.00723    1.000
    N4141    N        0.50248    0.88645    0.09399    1.000
    N4142    N        0.62643    0.86144    0.05296    1.000
    N4143    N        0.69435    0.86401    0.06907    1.000
    Si4144   Si       0.71346    0.86379    0.02971    1.000
    Si4145   Si       0.65664    0.84376    0.07892    1.000
    N4146    N        0.68441    0.88806    0.00778    1.000
    N4147    N        0.64300    0.84194    0.11981    1.000
    Si4148   Si       0.64363    0.88763    0.02483    1.000
    N4149    N        0.55437    0.87267    0.13053    1.000
    N4150    N        0.56168    0.87450    0.20947    1.000
    N4151    N        0.51638    0.83610    0.17622    1.000
    Si4152   Si       0.54058    0.83592    0.21288    1.000
    N4153    N        0.65953    0.83849    0.24072    1.000
    N4154    N        0.72622    0.85990    0.22684    1.000
    Si4155   Si       0.69417    0.83367    0.21231    1.000
    N4156    N        0.67237    0.85772    0.18283    1.000
    Si4157   Si       0.67825    0.84098    0.14364    1.000
    N4158    N        0.71604    0.86273    0.13274    1.000
    Si4159   Si       0.65527    0.87679    0.21926    1.000
    Si4160   Si       0.53954    0.85469    0.27727    1.000
    Si4161   Si       0.54911    0.85694    0.34761    1.000
    Si4162   Si       0.60678    0.85549    0.29608    1.000
    N4163    N        0.58857    0.85003    0.33545    1.000
    N4164    N        0.58052    0.83941    0.26733    1.000
    N4165    N        0.52760    0.83876    0.31424    1.000
    N4166    N        0.51350    0.83903    0.24708    1.000
    N4167    N        0.64395    0.83318    0.31001    1.000
    N4168    N        0.70579    0.84562    0.29437    1.000
    Si4169   Si       0.71119    0.87691    0.26505    1.000
    Si4170   Si       0.67826    0.85774    0.32635    1.000
    N4171    N        0.68728    0.85640    0.36990    1.000
    N4172    N        0.55033    0.87555    0.49172    1.000
    N4173    N        0.50184    0.87456    0.43856    1.000
    N4174    N        0.57877    0.87957    0.43150    1.000
    Si4175   Si       0.57520    0.83951    0.48814    1.000
    Si4176   Si       0.57895    0.84038    0.41446    1.000
    Si4177   Si       0.54026    0.89053    0.45069    1.000
    Si4178   Si       0.65855    0.83687    0.40050    1.000
    N4179    N        0.72881    0.87944    0.42909    1.000
    N4180    N        0.69322    0.87610    0.48226    1.000
    Si4181   Si       0.72677    0.86956    0.38512    1.000
    N4182    N        0.65316    0.87735    0.42294    1.000
    N4183    N        0.61505    0.83380    0.39368    1.000
    N4184    N        0.52751    0.86481    0.55383    1.000
    N4185    N        0.58627    0.84081    0.58073    1.000
    Si4186   Si       0.59388    0.88372    0.58295    1.000
    N4187    N        0.61444    0.84342    0.50512    1.000
    Si4188   Si       0.66372    0.86779    0.57372    1.000
    N4189    N        0.69447    0.85667    0.60222    1.000
    Si4190   Si       0.62245    0.88668    0.51160    1.000
    N4191    N        0.65960    0.88880    0.53668    1.000
    Si4192   Si       0.72812    0.83226    0.59070    1.000
    N4193    N        0.63441    0.89338    0.59511    1.000
    N4194    N        0.74305    0.83504    0.54931    1.000
    Si4195   Si       0.54449    0.85841    0.66746    1.000
    N4196    N        0.58694    0.85469    0.64907    1.000
    N4197    N        0.51262    0.87195    0.72304    1.000
    N4198    N        0.51522    0.84834    0.63679    1.000
    Si4199   Si       0.49477    0.88631    0.64210    1.000
    Si4200   Si       0.59616    0.86666    0.74704    1.000
    Si4201   Si       0.61671    0.87323    0.67310    1.000
    Si4202   Si       0.53443    0.83322    0.73202    1.000
    N4203    N        0.72259    0.86893    0.66150    1.000
    N4204    N        0.61937    0.85562    0.71127    1.000
    N4205    N        0.65914    0.88444    0.66582    1.000
    Si4206   Si       0.68931    0.88267    0.63585    1.000
    N4207    N        0.70154    0.88473    0.72441    1.000
    Si4208   Si       0.71351    0.84928    0.70050    1.000
    N4209    N        0.56962    0.87936    0.81806    1.000
    N4210    N        0.56566    0.83930    0.76198    1.000
    Si4211   Si       0.61054    0.89174    0.81823    1.000
    N4212    N        0.51038    0.89422    0.78672    1.000
    Si4213   Si       0.56729    0.83775    0.80690    1.000
    N4214    N        0.62393    0.87040    0.78186    1.000
    Si4215   Si       0.66198    0.85805    0.85466    1.000
    N4216    N        0.73145    0.85478    0.77971    1.000
    N4217    N        0.69485    0.88164    0.86058    1.000
    N4218    N        0.62625    0.88390    0.85695    1.000
    Si4219   Si       0.73782    0.87189    0.86635    1.000
    N4220    N        0.67292    0.83610    0.81878    1.000
    Si4221   Si       0.49193    0.87994    0.89355    1.000
    N4222    N        0.56079    0.87589    0.96482    1.000
    Si4223   Si       0.52709    0.84743    0.95257    1.000
    Si4224   Si       0.59432    0.84631    0.97467    1.000
    N4225    N        0.50081    0.84609    0.91798    1.000
    N4226    N        0.51247    0.85239    0.99350    1.000
    N4227    N        0.68165    0.84116    0.95305    1.000
    N4228    N        0.62840    0.87520    0.98608    1.000
    Si4229   Si       0.64919    0.83222    0.92339    1.000
    Si4230   Si       0.66569    0.88193    0.96260    1.000
    N4231    N        0.64421    0.87737    0.92292    1.000
    N4232    N        0.56330    0.93339    0.09529    1.000
    N4233    N        0.52011    0.92092    0.00448    1.000
    Si4234   Si       0.54513    0.89283    0.09156    1.000
    N4235    N        0.64912    0.92949    0.03822    1.000
    N4236    N        0.68568    0.92709    0.10182    1.000
    N4237    N        0.72102    0.94079    0.02571    1.000
    Si4238   Si       0.68293    0.93211    0.00581    1.000
    Si4239   Si       0.71094    0.89176    0.09984    1.000
    N4240    N        0.49280    0.94728    0.13330    1.000
    Si4241   Si       0.55315    0.89474    0.16998    1.000
    Si4242   Si       0.58103    0.89876    0.24429    1.000
    N4243    N        0.50896    0.90403    0.17436    1.000
    Si4244   Si       0.60401    0.93744    0.20063    1.000
    Si4245   Si       0.58749    0.94894    0.12818    1.000
    N4246    N        0.57264    0.94164    0.22980    1.000
    N4247    N        0.58093    0.92600    0.16567    1.000
    Si4248   Si       0.49363    0.94518    0.17636    1.000
    N4249    N        0.61983    0.89951    0.21445    1.000
    Si4250   Si       0.52104    0.92831    0.28585    1.000
    N4251    N        0.54249    0.90188    0.34786    1.000
    Si4252   Si       0.49765    0.90659    0.34744    1.000
    Si4253   Si       0.56770    0.93798    0.34039    1.000
    N4254    N        0.54811    0.89695    0.27346    1.000
    N4255    N        0.61469    0.89472    0.27715    1.000
    N4256    N        0.73402    0.90623    0.36210    1.000
    N4257    N        0.67382    0.89816    0.31612    1.000
    Si4258   Si       0.65287    0.91407    0.27908    1.000
    Si4259   Si       0.69939    0.92281    0.34162    1.000
    N4260    N        0.67683    0.90079    0.24827    1.000
    N4261    N        0.54067    0.93263    0.43887    1.000
    N4262    N        0.61003    0.93372    0.40149    1.000
    N4263    N        0.49294    0.93337    0.49357    1.000
    N4264    N        0.68269    0.93592    0.44235    1.000
    Si4265   Si       0.69020    0.89422    0.44323    1.000
    N4266    N        0.67580    0.94211    0.37290    1.000
    N4267    N        0.62651    0.91236    0.47590    1.000
    Si4268   Si       0.65821    0.94296    0.47688    1.000
    Si4269   Si       0.61711    0.90256    0.43257    1.000
    N4270    N        0.57080    0.91320    0.60518    1.000
    N4271    N        0.53851    0.93452    0.54173    1.000
    Si4272   Si       0.54831    0.89661    0.52818    1.000
    N4273    N        0.59117    0.89513    0.54086    1.000
    Si4274   Si       0.55906    0.94582    0.57935    1.000
    N4275    N        0.68848    0.94056    0.50991    1.000
    Si4276   Si       0.72462    0.92540    0.59249    1.000
    Si4277   Si       0.64684    0.93405    0.60064    1.000
    N4278    N        0.72706    0.90150    0.55538    1.000
    Si4279   Si       0.69777    0.90008    0.51956    1.000
    N4280    N        0.68727    0.92320    0.61777    1.000
    N4281    N        0.53323    0.90027    0.66096    1.000
    N4282    N        0.59852    0.91181    0.67700    1.000
    Si4283   Si       0.56742    0.92332    0.64718    1.000
    Si4284   Si       0.60044    0.93004    0.71857    1.000
    N4285    N        0.57280    0.90224    0.73936    1.000
    N4286    N        0.51484    0.94721    0.73957    1.000
    Si4287   Si       0.52828    0.90573    0.74699    1.000
    Si4288   Si       0.67151    0.90831    0.70232    1.000
    N4289    N        0.68886    0.94506    0.68564    1.000
    N4290    N        0.63958    0.91914    0.73152    1.000
    Si4291   Si       0.53421    0.90341    0.82322    1.000
    N4292    N        0.54905    0.94434    0.82453    1.000
    N4293    N        0.50415    0.89929    0.85610    1.000
    N4294    N        0.62108    0.93195    0.80610    1.000
    Si4295   Si       0.65195    0.93263    0.77306    1.000
    N4296    N        0.69036    0.91550    0.79225    1.000
    Si4297   Si       0.70554    0.91359    0.83248    1.000
    Si4298   Si       0.71965    0.89465    0.76332    1.000
    N4299    N        0.70674    0.95098    0.85571    1.000
    N4300    N        0.51424    0.90890    0.92636    1.000
    Si4301   Si       0.55588    0.91198    0.93981    1.000
    N4302    N        0.58924    0.91800    0.91296    1.000
    Si4303   Si       0.62735    0.90344    0.89447    1.000
    N4304    N        0.64404    0.94450    0.89304    1.000
    N4305    N        0.67565    0.92509    0.96148    1.000
    N4306    N        0.52349    0.98820    0.07761    1.000
    Si4307   Si       0.56229    0.96994    0.06989    1.000
    N4308    N        0.59240    0.00252    0.07948    1.000
    N4309    N        0.57026    0.96185    0.02868    1.000
    Si4310   Si       0.49441    0.98335    0.11004    1.000
    Si4311   Si       0.54015    0.95886    0.99625    1.000
    N4312    N        0.67680    0.98292    0.06100    1.000
    Si4313   Si       0.71946    0.97328    0.05782    1.000
    Si4314   Si       0.66250    0.00489    0.02522    1.000
    Si4315   Si       0.65528    0.95017    0.07858    1.000
    N4316    N        0.52464    0.97179    0.19059    1.000
    Si4317   Si       0.53715    0.96987    0.23317    1.000
    N4318    N        0.57439    0.98764    0.14206    1.000
    Si4319   Si       0.53985    0.00023    0.16476    1.000
    N4320    N        0.62988    0.95583    0.11640    1.000
    Si4321   Si       0.70827    0.00508    0.18821    1.000
    Si4322   Si       0.73009    0.96889    0.13945    1.000
    N4323    N        0.69775    0.98782    0.22798    1.000
    Si4324   Si       0.64774    0.97725    0.15198    1.000
    N4325    N        0.68982    0.97494    0.15837    1.000
    N4326    N        0.63419    0.96793    0.19527    1.000
    Si4327   Si       0.65373    0.98259    0.23114    1.000
    Si4328   Si       0.55414    0.99937    0.29558    1.000
    N4329    N        0.54774    0.95772    0.30676    1.000
    N4330    N        0.53822    0.00695    0.25505    1.000
    Si4331   Si       0.55836    0.00971    0.37026    1.000
    N4332    N        0.60984    0.94856    0.33463    1.000
    N4333    N        0.59585    0.00463    0.28910    1.000
    N4334    N        0.50224    0.95014    0.25105    1.000
    N4335    N        0.65508    0.99742    0.32406    1.000
    Si4336   Si       0.72973    0.00313    0.25845    1.000
    Si4337   Si       0.62396    0.97562    0.30214    1.000
    N4338    N        0.64467    0.95753    0.26905    1.000
    Si4339   Si       0.69950    0.99511    0.32204    1.000
    N4340    N        0.71358    0.95341    0.31277    1.000
    N4341    N        0.55711    0.96532    0.37459    1.000
    N4342    N        0.58883    0.99014    0.43183    1.000
    N4343    N        0.51986    0.99602    0.45158    1.000
    Si4344   Si       0.50553    0.95279    0.45643    1.000
    Si4345   Si       0.57020    0.95181    0.41288    1.000
    Si4346   Si       0.68981    0.96369    0.40905    1.000
    N4347    N        0.64902    0.98598    0.47154    1.000
    N4348    N        0.65502    0.99294    0.40131    1.000
    Si4349   Si       0.63035    0.00325    0.43616    1.000
    N4350    N        0.72594    0.98574    0.42266    1.000
    Si4351   Si       0.63403    0.95885    0.37165    1.000
    N4352    N        0.58907    0.97582    0.57413    1.000
    N4353    N        0.52521    0.96583    0.59849    1.000
    N4354    N        0.51394    0.99990    0.51786    1.000
    Si4355   Si       0.50552    0.95827    0.52853    1.000
    N4356    N        0.65683    0.96400    0.57076    1.000
    Si4357   Si       0.62649    0.99575    0.56960    1.000
    Si4358   Si       0.69424    0.96741    0.54543    1.000
    N4359    N        0.72725    0.96543    0.57462    1.000
    N4360    N        0.69521    0.00424    0.52651    1.000
    N4361    N        0.50642    0.00246    0.65906    1.000
    Si4362   Si       0.53683    0.99315    0.62929    1.000
    N4363    N        0.56770    0.96883    0.64905    1.000
    Si4364   Si       0.60635    0.97830    0.66319    1.000
    N4365    N        0.60591    0.97166    0.70598    1.000
    Si4366   Si       0.60745    0.99228    0.74467    1.000
    N4367    N        0.63540    0.95776    0.63639    1.000
    N4368    N        0.72936    0.00701    0.69480    1.000
    Si4369   Si       0.67830    0.95854    0.64573    1.000
    N4370    N        0.68212    0.00264    0.64426    1.000
    Si4371   Si       0.72003    0.96626    0.70584    1.000
    N4372    N        0.57588    0.97375    0.76873    1.000
    Si4373   Si       0.51491    0.97079    0.83259    1.000
    N4374    N        0.59879    0.99787    0.82982    1.000
    Si4375   Si       0.53524    0.98053    0.75928    1.000
    N4376    N        0.51158    0.99035    0.79409    1.000
    Si4377   Si       0.58677    0.96042    0.80929    1.000
    N4378    N        0.52940    0.00205    0.85879    1.000
    Si4379   Si       0.57240    0.00749    0.86407    1.000
    Si4380   Si       0.68466    0.99758    0.76893    1.000
    N4381    N        0.64484    0.97624    0.76441    1.000
    N4382    N        0.71574    0.99737    0.80164    1.000
    N4383    N        0.66263    0.00204    0.85558    1.000
    N4384    N        0.71041    0.96641    0.74907    1.000
    Si4385   Si       0.55618    0.99239    0.93584    1.000
    N4386    N        0.58107    0.98782    0.90068    1.000
    Si4387   Si       0.60903    0.95939    0.91641    1.000
    N4388    N        0.55580    0.95467    0.95641    1.000
    N4389    N        0.51114    0.99143    0.99300    1.000
    Si4390   Si       0.67649    0.97011    0.87982    1.000
    Si4391   Si       0.67160    0.96648    0.95285    1.000
    N4392    N        0.62938    0.97732    0.95026    1.000
    N4393    N        0.67690    0.97608    0.99461    1.000
    N4394    N        0.69175    0.98559    0.91804    1.000
    N4395    N        0.80268    0.03716    0.04092    1.000
    Si4396   Si       0.75867    0.03857    0.03535    1.000
    Si4397   Si       0.84294    0.04004    0.06134    1.000
    Si4398   Si       0.81929    0.05972    0.00782    1.000
    N4399    N        0.86186    0.05660    0.02463    1.000
    Si4400   Si       0.94958    0.04966    0.02734    1.000
    N4401    N        0.92826    0.02694    0.05770    1.000
    Si4402   Si       0.94719    0.02119    0.09528    1.000
    N4403    N        0.94772    0.06103    0.11527    1.000
    N4404    N        0.76754    0.05032    0.12533    1.000
    Si4405   Si       0.84621    0.02696    0.17053    1.000
    N4406    N        0.80109    0.04043    0.18887    1.000
    Si4407   Si       0.78201    0.02246    0.15392    1.000
    Si4408   Si       0.79180    0.01806    0.22595    1.000
    N4409    N        0.74956    0.02872    0.22961    1.000
    N4410    N        0.85974    0.03262    0.21228    1.000
    N4411    N        0.81958    0.00288    0.14091    1.000
    N4412    N        0.87260    0.05288    0.14839    1.000
    Si4413   Si       0.95291    0.04777    0.20608    1.000
    Si4414   Si       0.91564    0.04949    0.14342    1.000
    N4415    N        0.92860    0.01646    0.22186    1.000
    N4416    N        0.97945    0.02659    0.17757    1.000
    N4417    N        0.92122    0.00772    0.12737    1.000
    Si4418   Si       0.80702    0.04127    0.30933    1.000
    N4419    N        0.81306    0.03130    0.26440    1.000
    N4420    N        0.84483    0.02479    0.32726    1.000
    Si4421   Si       0.74899    0.03468    0.35663    1.000
    N4422    N        0.78180    0.01557    0.33745    1.000
    Si4423   Si       0.84985    0.04143    0.36670    1.000
    Si4424   Si       0.85253    0.04640    0.25447    1.000
    N4425    N        0.95885    0.04580    0.35230    1.000
    Si4426   Si       0.92547    0.04201    0.32717    1.000
    N4427    N        0.94192    0.04450    0.28564    1.000
    N4428    N        0.88226    0.01650    0.27014    1.000
    N4429    N        0.75774    0.04385    0.39952    1.000
    Si4430   Si       0.82640    0.02334    0.43185    1.000
    N4431    N        0.82897    0.01384    0.38986    1.000
    N4432    N        0.81472    0.06579    0.42925    1.000
    N4433    N        0.85065    0.06330    0.48637    1.000
    N4434    N        0.89038    0.04514    0.37988    1.000
    N4435    N        0.98359    0.06931    0.47968    1.000
    Si4436   Si       0.96731    0.01447    0.37874    1.000
    Si4437   Si       0.89435    0.05511    0.48266    1.000
    N4438    N        0.91356    0.05918    0.44382    1.000
    Si4439   Si       0.90276    0.02688    0.41635    1.000
    N4440    N        0.76770    0.03136    0.58432    1.000
    N4441    N        0.79551    0.02103    0.52462    1.000
    Si4442   Si       0.77308    0.05431    0.54477    1.000
    Si4443   Si       0.76182    0.06113    0.61668    1.000
    N4444    N        0.86043    0.05152    0.55222    1.000
    N4445    N        0.93186    0.05442    0.60879    1.000
    Si4446   Si       0.89184    0.05301    0.58466    1.000
    N4447    N        0.89615    0.01660    0.50258    1.000
    Si4448   Si       0.87289    0.01106    0.54037    1.000
    N4449    N        0.82330    0.01342    0.63434    1.000
    Si4450   Si       0.83331    0.05282    0.64242    1.000
    N4451    N        0.76530    0.04914    0.73657    1.000
    N4452    N        0.86036    0.05186    0.67810    1.000
    Si4453   Si       0.79669    0.01630    0.74398    1.000
    N4454    N        0.92427    0.04390    0.67315    1.000
    N4455    N        0.89771    0.03894    0.73404    1.000
    N4456    N        0.97504    0.04020    0.71796    1.000
    Si4457   Si       0.94526    0.02580    0.63907    1.000
    Si4458   Si       0.86688    0.02157    0.70701    1.000
    Si4459   Si       0.93452    0.05487    0.71450    1.000
    N4460    N        0.98714    0.03003    0.64783    1.000
    N4461    N        0.81318    0.03835    0.77891    1.000
    Si4462   Si       0.83931    0.03324    0.81281    1.000
    Si4463   Si       0.75787    0.04313    0.84907    1.000
    N4464    N        0.75965    0.06483    0.80863    1.000
    N4465    N        0.82817    0.06588    0.84100    1.000
    Si4466   Si       0.90582    0.05438    0.77530    1.000
    N4467    N        0.94809    0.04216    0.77930    1.000
    N4468    N        0.88155    0.03906    0.80677    1.000
    Si4469   Si       0.90615    0.02309    0.83959    1.000
    N4470    N        0.93935    0.04935    0.84748    1.000
    Si4471   Si       0.97167    0.01443    0.75221    1.000
    Si4472   Si       0.96533    0.06473    0.81447    1.000
    Si4473   Si       0.85523    0.06479    0.87469    1.000
    N4474    N        0.75737    0.01796    0.92915    1.000
    Si4475   Si       0.77483    0.04193    0.95988    1.000
    Si4476   Si       0.84207    0.02242    0.93868    1.000
    N4477    N        0.81770    0.03737    0.97123    1.000
    N4478    N        0.83462    0.05706    0.91240    1.000
    N4479    N        0.75743    0.05824    0.99856    1.000
    N4480    N        0.93386    0.05218    0.91903    1.000
    Si4481   Si       0.90697    0.01985    0.90827    1.000
    N4482    N        0.88238    0.03029    0.87528    1.000
    N4483    N        0.93562    0.04127    0.98768    1.000
    N4484    N        0.88576    0.01356    0.94620    1.000
    N4485    N        0.80839    0.10095    0.02459    1.000
    N4486    N        0.78287    0.11032    0.09278    1.000
    Si4487   Si       0.81654    0.10621    0.06643    1.000
    N4488    N        0.83146    0.07190    0.08791    1.000
    Si4489   Si       0.80111    0.07871    0.11788    1.000
    N4490    N        0.93029    0.08980    0.02703    1.000
    Si4491   Si       0.89148    0.08259    0.00735    1.000
    N4492    N        0.97722    0.09915    0.07146    1.000
    Si4493   Si       0.97085    0.09556    0.11573    1.000
    Si4494   Si       0.94838    0.12287    0.05012    1.000
    N4495    N        0.87163    0.12163    0.01195    1.000
    Si4496   Si       0.85513    0.11319    0.15740    1.000
    N4497    N        0.81612    0.09430    0.15579    1.000
    N4498    N        0.81037    0.09652    0.23293    1.000
    Si4499   Si       0.79722    0.08420    0.19492    1.000
    N4500    N        0.75510    0.09184    0.19739    1.000
    Si4501   Si       0.85175    0.11912    0.23574    1.000
    N4502    N        0.87206    0.10792    0.19890    1.000
    N4503    N        0.93092    0.07297    0.17740    1.000
    Si4504   Si       0.91111    0.11107    0.17973    1.000
    N4505    N        0.89513    0.12088    0.14056    1.000
    N4506    N        0.97990    0.07009    0.23262    1.000
    Si4507   Si       0.80931    0.10490    0.34739    1.000
    Si4508   Si       0.78728    0.10007    0.27096    1.000
    N4509    N        0.80120    0.08328    0.31060    1.000
    N4510    N        0.84303    0.08572    0.36582    1.000
    N4511    N        0.74849    0.08110    0.26744    1.000
    N4512    N        0.86650    0.08532    0.26327    1.000
    Si4513   Si       0.89218    0.10970    0.29220    1.000
    N4514    N        0.93733    0.11464    0.27689    1.000
    Si4515   Si       0.88431    0.09312    0.35992    1.000
    Si4516   Si       0.96176    0.07815    0.27214    1.000
    N4517    N        0.89890    0.07600    0.32165    1.000
    N4518    N        0.99005    0.10415    0.37089    1.000
    N4519    N        0.77804    0.11229    0.37837    1.000
    Si4520   Si       0.77564    0.08070    0.41255    1.000
    Si4521   Si       0.83882    0.09175    0.45493    1.000
    N4522    N        0.74411    0.09989    0.43741    1.000
    N4523    N        0.81033    0.12313    0.46749    1.000
    Si4524   Si       0.95519    0.09934    0.48579    1.000
    N4525    N        0.91507    0.10932    0.38517    1.000
    Si4526   Si       0.91279    0.09911    0.42731    1.000
    N4527    N        0.94326    0.12147    0.44978    1.000
    N4528    N        0.87408    0.11114    0.43914    1.000
    N4529    N        0.79687    0.08669    0.52902    1.000
    Si4530   Si       0.83742    0.07493    0.52470    1.000
    N4531    N        0.85614    0.11415    0.52599    1.000
    Si4532   Si       0.79490    0.12438    0.50849    1.000
    N4533    N        0.86825    0.06922    0.61960    1.000
    N4534    N        0.91984    0.08455    0.50504    1.000
    Si4535   Si       0.94077    0.09747    0.59758    1.000
    N4536    N        0.90084    0.09859    0.57722    1.000
    Si4537   Si       0.89915    0.10949    0.53499    1.000
    N4538    N        0.97511    0.09095    0.57226    1.000
    Si4539   Si       0.87842    0.11556    0.61516    1.000
    N4540    N        0.79717    0.07810    0.63931    1.000
    Si4541   Si       0.80035    0.12045    0.64687    1.000
    N4542    N        0.98300    0.09378    0.67250    1.000
    Si4543   Si       0.90435    0.12240    0.74183    1.000
    Si4544   Si       0.94487    0.11364    0.67700    1.000
    N4545    N        0.91455    0.10609    0.64431    1.000
    N4546    N        0.92934    0.09721    0.71482    1.000
    Si4547   Si       0.89475    0.06745    0.65398    1.000
    N4548    N        0.80208    0.10482    0.75593    1.000
    Si4549   Si       0.79962    0.09782    0.85079    1.000
    N4550    N        0.76639    0.07806    0.87180    1.000
    Si4551   Si       0.78224    0.06995    0.77239    1.000
    N4552    N        0.90500    0.09660    0.77756    1.000
    N4553    N        0.96595    0.10796    0.81263    1.000
    N4554    N        0.88376    0.09583    0.86804    1.000
    Si4555   Si       0.74286    0.09595    0.97511    1.000
    Si4556   Si       0.81313    0.09069    0.92690    1.000
    N4557    N        0.81521    0.11435    0.88878    1.000
    N4558    N        0.77315    0.08434    0.94528    1.000
    Si4559   Si       0.74636    0.08584    0.90838    1.000
    N4560    N        0.84026    0.12126    0.94309    1.000
    N4561    N        0.97094    0.10400    0.95179    1.000
    Si4562   Si       0.93789    0.07275    0.95677    1.000
    N4563    N        0.90067    0.09319    0.96591    1.000
    N4564    N        0.94819    0.11136    0.88566    1.000
    Si4565   Si       0.95375    0.06805    0.88429    1.000
    N4566    N        0.77934    0.16331    0.04449    1.000
    N4567    N        0.84541    0.13930    0.07731    1.000
    Si4568   Si       0.84673    0.16716    0.11021    1.000
    N4569    N        0.75680    0.17247    0.10991    1.000
    Si4570   Si       0.74517    0.13446    0.09416    1.000
    Si4571   Si       0.79517    0.14053    0.01013    1.000
    N4572    N        0.91355    0.13968    0.07028    1.000
    Si4573   Si       0.87661    0.14590    0.04796    1.000
    N4574    N        0.96981    0.15495    0.03119    1.000
    Si4575   Si       0.91481    0.15051    0.11317    1.000
    N4576    N        0.95751    0.13769    0.11800    1.000
    Si4577   Si       0.74244    0.13293    0.18870    1.000
    N4578    N        0.83911    0.15647    0.15214    1.000
    Si4579   Si       0.81755    0.17225    0.18683    1.000
    N4580    N        0.83527    0.15945    0.22513    1.000
    N4581    N        0.77684    0.15905    0.17710    1.000
    Si4582   Si       0.74799    0.18105    0.15345    1.000
    Si4583   Si       0.97472    0.17504    0.12796    1.000
    Si4584   Si       0.93092    0.18379    0.18866    1.000
    Si4585   Si       0.92350    0.14499    0.24539    1.000
    N4586    N        0.92811    0.14245    0.20315    1.000
    N4587    N        0.77688    0.14352    0.27870    1.000
    N4588    N        0.81344    0.14924    0.34192    1.000
    Si4589   Si       0.77969    0.16410    0.31741    1.000
    Si4590   Si       0.85384    0.16727    0.33568    1.000
    Si4591   Si       0.75252    0.17009    0.25603    1.000
    Si4592   Si       0.85904    0.18065    0.25598    1.000
    N4593    N        0.74014    0.14709    0.33230    1.000
    N4594    N        0.87559    0.13136    0.32990    1.000
    N4595    N        0.95804    0.15372    0.33882    1.000
    Si4596   Si       0.95893    0.14825    0.29718    1.000
    N4597    N        0.88295    0.14486    0.26166    1.000
    N4598    N        0.94053    0.17883    0.26855    1.000
    Si4599   Si       0.97948    0.18252    0.36565    1.000
    Si4600   Si       0.95338    0.12711    0.37408    1.000
    Si4601   Si       0.74161    0.13782    0.45860    1.000
    N4602    N        0.76766    0.16067    0.43047    1.000
    Si4603   Si       0.80953    0.16484    0.44857    1.000
    N4604    N        0.83082    0.15865    0.41061    1.000
    Si4605   Si       0.79641    0.15416    0.38544    1.000
    N4606    N        0.85876    0.16781    0.47336    1.000
    Si4607   Si       0.86793    0.15378    0.43249    1.000
    N4608    N        0.90438    0.18171    0.43400    1.000
    Si4609   Si       0.94525    0.16427    0.43898    1.000
    N4610    N        0.95731    0.16560    0.39794    1.000
    N4611    N        0.81188    0.16179    0.52201    1.000
    Si4612   Si       0.85744    0.15953    0.51647    1.000
    N4613    N        0.77354    0.14556    0.62299    1.000
    N4614    N        0.75101    0.13428    0.50194    1.000
    N4615    N        0.90548    0.15200    0.52335    1.000
    N4616    N        0.88153    0.15803    0.60369    1.000
    N4617    N        0.94841    0.14315    0.59222    1.000
    Si4618   Si       0.92046    0.17521    0.60353    1.000
    Si4619   Si       0.97586    0.13666    0.55830    1.000
    Si4620   Si       0.98228    0.17192    0.50399    1.000
    N4621    N        0.97170    0.13189    0.51474    1.000
    N4622    N        0.96317    0.18610    0.54033    1.000
    N4623    N        0.80365    0.13389    0.68916    1.000
    N4624    N        0.74423    0.14385    0.73147    1.000
    Si4625   Si       0.84709    0.13922    0.68458    1.000
    Si4626   Si       0.78559    0.13721    0.72645    1.000
    Si4627   Si       0.85267    0.17804    0.63475    1.000
    N4628    N        0.84443    0.12812    0.64254    1.000
    N4629    N        0.86674    0.12758    0.72141    1.000
    N4630    N        0.94744    0.15481    0.68655    1.000
    N4631    N        0.87369    0.17221    0.67417    1.000
    Si4632   Si       0.98569    0.17330    0.69706    1.000
    Si4633   Si       0.91593    0.18518    0.67818    1.000
    Si4634   Si       0.75877    0.15668    0.82980    1.000
    N4635    N        0.83775    0.16781    0.85678    1.000
    N4636    N        0.85489    0.14683    0.79378    1.000
    Si4637   Si       0.81558    0.13674    0.78124    1.000
    N4638    N        0.78888    0.12771    0.81803    1.000
    N4639    N        0.80348    0.16837    0.75278    1.000
    N4640    N        0.76456    0.16458    0.87317    1.000
    Si4641   Si       0.86949    0.16771    0.82907    1.000
    N4642    N        0.91318    0.15222    0.83587    1.000
    N4643    N        0.92361    0.15408    0.76643    1.000
    N4644    N        0.98503    0.17106    0.84804    1.000
    Si4645   Si       0.90968    0.12825    0.87327    1.000
    Si4646   Si       0.92592    0.12651    0.80085    1.000
    N4647    N        0.81134    0.17159    0.98684    1.000
    Si4648   Si       0.84107    0.14601    0.90446    1.000
    N4649    N        0.75191    0.18663    0.93602    1.000
    N4650    N        0.81406    0.18088    0.91791    1.000
    Si4651   Si       0.80303    0.18690    0.87560    1.000
    N4652    N        0.75472    0.13193    0.99752    1.000
    N4653    N        0.88385    0.15488    0.89918    1.000
    Si4654   Si       0.96800    0.13169    0.91759    1.000
    Si4655   Si       0.90322    0.18319    0.92540    1.000
    Si4656   Si       0.87447    0.12875    0.96853    1.000
    N4657    N        0.94568    0.16851    0.91763    1.000
    N4658    N        0.88212    0.17157    0.96198    1.000
    N4659    N        0.76764    0.22701    0.06228    1.000
    N4660    N        0.81977    0.19987    0.10001    1.000
    Si4661   Si       0.78269    0.19080    0.07805    1.000
    Si4662   Si       0.83930    0.23820    0.10615    1.000
    Si4663   Si       0.89436    0.20859    0.06908    1.000
    N4664    N        0.93541    0.21829    0.06110    1.000
    Si4665   Si       0.95298    0.19710    0.02844    1.000
    Si4666   Si       0.95492    0.23943    0.09696    1.000
    N4667    N        0.88811    0.18658    0.10793    1.000
    N4668    N        0.87891    0.18698    0.03577    1.000
    N4669    N        0.98713    0.20616    0.09927    1.000
    N4670    N        0.74680    0.21967    0.17287    1.000
    Si4671   Si       0.85923    0.23307    0.18465    1.000
    N4672    N        0.81918    0.21535    0.18600    1.000
    Si4673   Si       0.77963    0.22541    0.20098    1.000
    N4674    N        0.77786    0.20433    0.23928    1.000
    N4675    N        0.86251    0.23884    0.14193    1.000
    Si4676   Si       0.90096    0.21601    0.14004    1.000
    N4677    N        0.96807    0.19333    0.20945    1.000
    N4678    N        0.89528    0.20788    0.18635    1.000
    N4679    N        0.93745    0.19003    0.14491    1.000
    N4680    N        0.77262    0.20685    0.30944    1.000
    Si4681   Si       0.77931    0.22543    0.34730    1.000
    Si4682   Si       0.85089    0.23077    0.29162    1.000
    Si4683   Si       0.77794    0.23211    0.27246    1.000
    N4684    N        0.84579    0.18806    0.29784    1.000
    Si4685   Si       0.86074    0.23988    0.36322    1.000
    N4686    N        0.77438    0.19091    0.37250    1.000
    N4687    N        0.97209    0.22029    0.34491    1.000
    N4688    N        0.87042    0.22447    0.25290    1.000
    N4689    N        0.87875    0.19588    0.35954    1.000
    Si4690   Si       0.95879    0.21204    0.24882    1.000
    Si4691   Si       0.83713    0.23711    0.44164    1.000
    N4692    N        0.75015    0.22925    0.42386    1.000
    N4693    N        0.80688    0.20663    0.45208    1.000
    Si4694   Si       0.76688    0.22155    0.46250    1.000
    Si4695   Si       0.74608    0.19018    0.40435    1.000
    N4696    N        0.86167    0.23673    0.47743    1.000
    N4697    N        0.74297    0.19892    0.48842    1.000
    N4698    N        0.86356    0.22934    0.40733    1.000
    N4699    N        0.99190    0.24189    0.40791    1.000
    Si4700   Si       0.90052    0.20860    0.39800    1.000
    Si4701   Si       0.88780    0.20345    0.47129    1.000
    N4702    N        0.97397    0.18570    0.46415    1.000
    N4703    N        0.91887    0.21671    0.49752    1.000
    N4704    N        0.76210    0.22159    0.61122    1.000
    Si4705   Si       0.80518    0.19587    0.54805    1.000
    N4706    N        0.80949    0.23348    0.52978    1.000
    N4707    N        0.76265    0.19342    0.55316    1.000
    Si4708   Si       0.78663    0.18723    0.61654    1.000
    N4709    N        0.82427    0.19229    0.58715    1.000
    Si4710   Si       0.85252    0.24426    0.52141    1.000
    N4711    N        0.86578    0.19908    0.53490    1.000
    Si4712   Si       0.86901    0.21197    0.57920    1.000
    N4713    N        0.98371    0.22330    0.59939    1.000
    Si4714   Si       0.95862    0.22151    0.56502    1.000
    N4715    N        0.91614    0.20788    0.57354    1.000
    Si4716   Si       0.91462    0.19308    0.53315    1.000
    Si4717   Si       0.80984    0.23171    0.67491    1.000
    N4718    N        0.83233    0.22256    0.71176    1.000
    N4719    N        0.81364    0.19476    0.65006    1.000
    N4720    N        0.77467    0.23704    0.73969    1.000
    Si4721   Si       0.74388    0.23699    0.70730    1.000
    Si4722   Si       0.80721    0.21085    0.74406    1.000
    N4723    N        0.87115    0.21727    0.62427    1.000
    N4724    N        0.91228    0.20241    0.71879    1.000
    N4725    N        0.93355    0.19733    0.63955    1.000
    N4726    N        0.97719    0.19750    0.73094    1.000
    Si4727   Si       0.96988    0.22100    0.64098    1.000
    Si4728   Si       0.87741    0.22879    0.71794    1.000
    Si4729   Si       0.78304    0.22614    0.81348    1.000
    N4730    N        0.81838    0.22301    0.78562    1.000
    N4731    N        0.79884    0.22345    0.85369    1.000
    N4732    N        0.75108    0.19644    0.80932    1.000
    Si4733   Si       0.85789    0.23877    0.79559    1.000
    Si4734   Si       0.92402    0.19618    0.82387    1.000
    N4735    N        0.88183    0.20804    0.81502    1.000
    N4736    N        0.95228    0.20884    0.79308    1.000
    N4737    N        0.93508    0.21223    0.86282    1.000
    Si4738   Si       0.98176    0.24003    0.80253    1.000
    Si4739   Si       0.94040    0.19393    0.75391    1.000
    N4740    N        0.79047    0.23400    0.96898    1.000
    Si4741   Si       0.79373    0.19214    0.95385    1.000
    Si4742   Si       0.93879    0.22868    0.96183    1.000
    N4743    N        0.90685    0.22668    0.93029    1.000
    N4744    N        0.86344    0.23718    0.98996    1.000
    N4745    N        0.98053    0.23475    0.95540    1.000
    N4746    N        0.92981    0.20099    0.99373    1.000
    Si4747   Si       0.88600    0.19997    0.99470    1.000
    Si4748   Si       0.96307    0.18955    0.88355    1.000
    N4749    N        0.80999    0.27059    0.10175    1.000
    Si4750   Si       0.78993    0.26500    0.06435    1.000
    N4751    N        0.81612    0.26875    0.03271    1.000
    Si4752   Si       0.85529    0.27791    0.04835    1.000
    N4753    N        0.75129    0.28755    0.06330    1.000
    N4754    N        0.98381    0.26540    0.07611    1.000
    N4755    N        0.88092    0.29680    0.01606    1.000
    N4756    N        0.86702    0.24349    0.07327    1.000
    N4757    N        0.77630    0.26670    0.21666    1.000
    N4758    N        0.82373    0.30150    0.17324    1.000
    N4759    N        0.92434    0.25266    0.12381    1.000
    N4760    N        0.87511    0.27012    0.20225    1.000
    Si4761   Si       0.96770    0.28085    0.23978    1.000
    Si4762   Si       0.89648    0.25733    0.23789    1.000
    N4763    N        0.93764    0.24791    0.23357    1.000
    Si4764   Si       0.92007    0.29498    0.12830    1.000
    N4765    N        0.75124    0.26076    0.35084    1.000
    N4766    N        0.81493    0.25283    0.28261    1.000
    Si4767   Si       0.81400    0.29592    0.28891    1.000
    N4768    N        0.74261    0.25790    0.27187    1.000
    N4769    N        0.81889    0.23885    0.35445    1.000
    Si4770   Si       0.87443    0.29206    0.33625    1.000
    N4771    N        0.97616    0.28350    0.35226    1.000
    N4772    N        0.96207    0.27892    0.28469    1.000
    N4773    N        0.89489    0.29735    0.25998    1.000
    N4774    N        0.87605    0.25045    0.32180    1.000
    Si4775   Si       0.98128    0.24789    0.31204    1.000
    N4776    N        0.82084    0.27636    0.43327    1.000
    Si4777   Si       0.78037    0.28801    0.44731    1.000
    N4778    N        0.76629    0.26287    0.48200    1.000
    N4779    N        0.75983    0.29734    0.41015    1.000
    Si4780   Si       0.74019    0.26246    0.39330    1.000
    Si4781   Si       0.85114    0.30209    0.41470    1.000
    N4782    N        0.87093    0.28662    0.37883    1.000
    Si4783   Si       0.96614    0.24876    0.37559    1.000
    Si4784   Si       0.94471    0.25595    0.49328    1.000
    N4785    N        0.88941    0.30061    0.43697    1.000
    Si4786   Si       0.91037    0.28358    0.40044    1.000
    N4787    N        0.98253    0.25965    0.47174    1.000
    N4788    N        0.92464    0.24442    0.39170    1.000
    Si4789   Si       0.79593    0.27271    0.51608    1.000
    N4790    N        0.83718    0.28858    0.51412    1.000
    N4791    N        0.73978    0.28724    0.60606    1.000
    N4792    N        0.86679    0.25397    0.56450    1.000
    Si4793   Si       0.86554    0.28944    0.58626    1.000
    N4794    N        0.96157    0.25363    0.53572    1.000
    Si4795   Si       0.93776    0.29525    0.53844    1.000
    N4796    N        0.91648    0.29010    0.49910    1.000
    N4797    N        0.88626    0.28925    0.62328    1.000
    N4798    N        0.83257    0.26734    0.65437    1.000
    Si4799   Si       0.74503    0.25450    0.63627    1.000
    N4800    N        0.76789    0.24712    0.67302    1.000
    Si4801   Si       0.87259    0.25496    0.64571    1.000
    Si4802   Si       0.92965    0.27551    0.68944    1.000
    N4803    N        0.95984    0.25898    0.66176    1.000
    N4804    N        0.89196    0.25389    0.68492    1.000
    Si4805   Si       0.97423    0.29415    0.74466    1.000
    N4806    N        0.93603    0.27818    0.73198    1.000
    N4807    N        0.76743    0.26630    0.80150    1.000
    N4808    N        0.84710    0.26690    0.82705    1.000
    Si4809   Si       0.82079    0.26187    0.86139    1.000
    Si4810   Si       0.78298    0.27398    0.76132    1.000
    N4811    N        0.78453    0.28942    0.86151    1.000
    N4812    N        0.82117    0.29194    0.75185    1.000
    Si4813   Si       0.76627    0.30277    0.82348    1.000
    N4814    N        0.96254    0.26622    0.83059    1.000
    Si4815   Si       0.89856    0.28780    0.75783    1.000
    Si4816   Si       0.88285    0.29190    0.83679    1.000
    N4817    N        0.90867    0.29080    0.79872    1.000
    Si4818   Si       0.94166    0.25530    0.86703    1.000
    N4819    N        0.87791    0.24696    0.75767    1.000
    N4820    N        0.89978    0.26859    0.86889    1.000
    N4821    N        0.99245    0.25692    0.76283    1.000
    Si4822   Si       0.94869    0.30423    0.81351    1.000
    N4823    N        0.83931    0.25729    0.90123    1.000
    N4824    N        0.82953    0.29015    0.96983    1.000
    N4825    N        0.77544    0.29024    0.92839    1.000
    Si4826   Si       0.76236    0.26711    0.96325    1.000
    Si4827   Si       0.81983    0.28833    0.92719    1.000
    Si4828   Si       0.82209    0.25106    0.99292    1.000
    Si4829   Si       0.75463    0.30045    0.88988    1.000
    N4830    N        0.76585    0.29845    0.99357    1.000
    N4831    N        0.95805    0.27332    0.90401    1.000
    Si4832   Si       0.93900    0.30303    0.92798    1.000
    Si4833   Si       0.96046    0.29436    0.99518    1.000
    Si4834   Si       0.88658    0.27278    0.98075    1.000
    N4835    N        0.93129    0.26660    0.98349    1.000
    Si4836   Si       0.88392    0.25972    0.90912    1.000
    N4837    N        0.89594    0.29205    0.93883    1.000
    N4838    N        0.76158    0.35442    0.04255    1.000
    N4839    N        0.82475    0.34470    0.01572    1.000
    Si4840   Si       0.74383    0.31668    0.02912    1.000
    N4841    N        0.82238    0.34207    0.11521    1.000
    Si4842   Si       0.86503    0.33460    0.10990    1.000
    N4843    N        0.86565    0.31152    0.07344    1.000
    Si4844   Si       0.86739    0.33783    0.00416    1.000
    N4845    N        0.94341    0.31987    0.02876    1.000
    Si4846   Si       0.90198    0.31712    0.05100    1.000
    N4847    N        0.89055    0.35888    0.03493    1.000
    N4848    N        0.92709    0.30552    0.08610    1.000
    Si4849   Si       0.93320    0.36296    0.02419    1.000
    Si4850   Si       0.96563    0.30338    0.06490    1.000
    N4851    N        0.77377    0.33416    0.20246    1.000
    N4852    N        0.76526    0.31310    0.13487    1.000
    Si4853   Si       0.74381    0.32753    0.17093    1.000
    Si4854   Si       0.80771    0.30446    0.13022    1.000
    Si4855   Si       0.86594    0.30644    0.18103    1.000
    Si4856   Si       0.80157    0.30197    0.21096    1.000
    N4857    N        0.96309    0.31823    0.21673    1.000
    N4858    N        0.95277    0.31443    0.14840    1.000
    N4859    N        0.86781    0.33968    0.20843    1.000
    N4860    N        0.88311    0.31178    0.14297    1.000
    Si4861   Si       0.98267    0.32715    0.17860    1.000
    Si4862   Si       0.97085    0.35598    0.24021    1.000
    Si4863   Si       0.77078    0.34897    0.31748    1.000
    N4864    N        0.84229    0.31249    0.31770    1.000
    N4865    N        0.77464    0.30692    0.30441    1.000
    Si4866   Si       0.84839    0.35507    0.31884    1.000
    N4867    N        0.74555    0.34445    0.35239    1.000
    N4868    N        0.82438    0.30931    0.24722    1.000
    N4869    N        0.86535    0.35795    0.27841    1.000
    Si4870   Si       0.94801    0.31584    0.35274    1.000
    N4871    N        0.95531    0.34445    0.27941    1.000
    N4872    N        0.97326    0.35122    0.34414    1.000
    N4873    N        0.91507    0.30863    0.32929    1.000
    Si4874   Si       0.92803    0.30991    0.28770    1.000
    Si4875   Si       0.86362    0.32615    0.24976    1.000
    Si4876   Si       0.99122    0.35677    0.30462    1.000
    N4877    N        0.84079    0.34500    0.41756    1.000
    N4878    N        0.78416    0.32700    0.46449    1.000
    Si4879   Si       0.74603    0.33490    0.39576    1.000
    Si4880   Si       0.80108    0.35724    0.43725    1.000
    Si4881   Si       0.75741    0.32892    0.49977    1.000
    Si4882   Si       0.93913    0.35250    0.41858    1.000
    Si4883   Si       0.97385    0.33820    0.48341    1.000
    Si4884   Si       0.90178    0.32146    0.47223    1.000
    N4885    N        0.93609    0.31628    0.39385    1.000
    N4886    N        0.87282    0.34768    0.49214    1.000
    N4887    N        0.93765    0.34452    0.46125    1.000
    Si4888   Si       0.79993    0.32747    0.56779    1.000
    N4889    N        0.83069    0.35135    0.54615    1.000
    N4890    N        0.77181    0.35670    0.57954    1.000
    Si4891   Si       0.85705    0.32422    0.52542    1.000
    N4892    N        0.77483    0.30626    0.53555    1.000
    N4893    N        0.82590    0.30657    0.59485    1.000
    N4894    N        0.88734    0.31751    0.55823    1.000
    N4895    N        0.97585    0.31260    0.52054    1.000
    Si4896   Si       0.91955    0.33475    0.58390    1.000
    Si4897   Si       0.97714    0.35051    0.54256    1.000
    N4898    N        0.90509    0.35418    0.61928    1.000
    N4899    N        0.94820    0.30134    0.58074    1.000
    Si4900   Si       0.82102    0.30579    0.63863    1.000
    N4901    N        0.84814    0.33529    0.65914    1.000
    Si4902   Si       0.75119    0.34966    0.66491    1.000
    N4903    N        0.78311    0.32353    0.65208    1.000
    N4904    N        0.80818    0.35844    0.73843    1.000
    N4905    N        0.76026    0.30557    0.74237    1.000
    Si4906   Si       0.84128    0.32975    0.74710    1.000
    N4907    N        0.98946    0.30763    0.70783    1.000
    N4908    N        0.92220    0.31720    0.67759    1.000
    N4909    N        0.88632    0.32553    0.73743    1.000
    Si4910   Si       0.89078    0.32572    0.64865    1.000
    Si4911   Si       0.91285    0.34678    0.70770    1.000
    N4912    N        0.78282    0.33360    0.79782    1.000
    Si4913   Si       0.77264    0.34306    0.75729    1.000
    N4914    N        0.85119    0.34835    0.78750    1.000
    N4915    N        0.82767    0.34520    0.85044    1.000
    Si4916   Si       0.81624    0.35851    0.81013    1.000
    Si4917   Si       0.88133    0.36138    0.81497    1.000
    N4918    N        0.89384    0.33368    0.84546    1.000
    N4919    N        0.96052    0.33574    0.84266    1.000
    N4920    N        0.96587    0.32088    0.77625    1.000
    Si4921   Si       0.92745    0.35191    0.86623    1.000
    Si4922   Si       0.95118    0.36101    0.77421    1.000
    N4923    N        0.84315    0.32138    0.91247    1.000
    N4924    N        0.79096    0.35118    0.95807    1.000
    Si4925   Si       0.80333    0.32004    0.98668    1.000
    N4926    N        0.75353    0.34259    0.90164    1.000
    Si4927   Si       0.75382    0.33192    0.94394    1.000
    Si4928   Si       0.83141    0.35812    0.89208    1.000
    N4929    N        0.87807    0.35464    0.96588    1.000
    Si4930   Si       0.88372    0.33456    0.92397    1.000
    N4931    N        0.96671    0.31648    0.95805    1.000
    N4932    N        0.92528    0.33729    0.90536    1.000
    Si4933   Si       0.98332    0.35469    0.96817    1.000
    N4934    N        0.82379    0.39625    0.06635    1.000
    N4935    N        0.76360    0.38282    0.10715    1.000
    Si4936   Si       0.80719    0.38388    0.10939    1.000
    N4937    N        0.78283    0.40164    0.00526    1.000
    Si4938   Si       0.80124    0.37465    0.03697    1.000
    Si4939   Si       0.86717    0.38481    0.06328    1.000
    N4940    N        0.88159    0.37416    0.10313    1.000
    N4941    N        0.94808    0.38534    0.05639    1.000
    Si4942   Si       0.98474    0.37744    0.07350    1.000
    Si4943   Si       0.92605    0.42310    0.05724    1.000
    Si4944   Si       0.73803    0.40298    0.13913    1.000
    N4945    N        0.82988    0.40618    0.13616    1.000
    N4946    N        0.82538    0.39717    0.20101    1.000
    N4947    N        0.76681    0.41037    0.17130    1.000
    N4948    N        0.88690    0.40653    0.23327    1.000
    Si4949   Si       0.87445    0.40568    0.13419    1.000
    Si4950   Si       0.86433    0.38214    0.20345    1.000
    N4951    N        0.95248    0.39256    0.23268    1.000
    N4952    N        0.89383    0.39564    0.17232    1.000
    Si4953   Si       0.92063    0.40831    0.20471    1.000
    N4954    N        0.80696    0.37382    0.31839    1.000
    Si4955   Si       0.80657    0.41590    0.30912    1.000
    N4956    N        0.74448    0.36804    0.28533    1.000
    N4957    N        0.74030    0.41840    0.36508    1.000
    N4958    N        0.87339    0.37167    0.35133    1.000
    N4959    N        0.91384    0.40505    0.29870    1.000
    Si4960   Si       0.87842    0.40041    0.27413    1.000
    Si4961   Si       0.90522    0.40474    0.34366    1.000
    Si4962   Si       0.95073    0.41078    0.27638    1.000
    N4963    N        0.94531    0.41381    0.35925    1.000
    Si4964   Si       0.97686    0.38593    0.36843    1.000
    N4965    N        0.98872    0.39997    0.29676    1.000
    Si4966   Si       0.77606    0.39966    0.48889    1.000
    Si4967   Si       0.74871    0.40810    0.41070    1.000
    N4968    N        0.81071    0.38607    0.46902    1.000
    Si4969   Si       0.85225    0.38557    0.48231    1.000
    N4970    N        0.76953    0.36847    0.41006    1.000
    N4971    N        0.84394    0.40988    0.40123    1.000
    N4972    N        0.74509    0.40153    0.45870    1.000
    N4973    N        0.94247    0.41961    0.45180    1.000
    N4974    N        0.87760    0.41704    0.46417    1.000
    Si4975   Si       0.86379    0.37331    0.39412    1.000
    N4976    N        0.97666    0.37552    0.41081    1.000
    Si4977   Si       0.97911    0.41275    0.43305    1.000
    N4978    N        0.90367    0.37994    0.41177    1.000
    Si4979   Si       0.84078    0.39195    0.55522    1.000
    Si4980   Si       0.75681    0.38843    0.60493    1.000
    N4981    N        0.75809    0.36858    0.51592    1.000
    N4982    N        0.84699    0.40989    0.51791    1.000
    N4983    N        0.88130    0.39265    0.57125    1.000
    Si4984   Si       0.91719    0.40044    0.54972    1.000
    Si4985   Si       0.89018    0.39485    0.61301    1.000
    N4986    N        0.93628    0.36233    0.55234    1.000
    N4987    N        0.98480    0.37322    0.50659    1.000
    N4988    N        0.78065    0.41583    0.62637    1.000
    N4989    N        0.83152    0.40315    0.70015    1.000
    N4990    N        0.85134    0.40326    0.63230    1.000
    N4991    N        0.76477    0.38619    0.68538    1.000
    Si4992   Si       0.79301    0.39283    0.71585    1.000
    Si4993   Si       0.85203    0.37892    0.67014    1.000
    N4994    N        0.96027    0.42242    0.68610    1.000
    N4995    N        0.98333    0.39565    0.62707    1.000
    N4996    N        0.94200    0.37109    0.73295    1.000
    Si4997   Si       0.91428    0.41974    0.67743    1.000
    N4998    N        0.89415    0.37895    0.68226    1.000
    Si4999   Si       0.97321    0.40119    0.72314    1.000
    N5000    N        0.80366    0.40012    0.80557    1.000
    Si5001   Si       0.76065    0.39752    0.80290    1.000
    N5002    N        0.74524    0.37628    0.76457    1.000
    N5003    N        0.74909    0.37763    0.83971    1.000
    N5004    N        0.86827    0.40180    0.82859    1.000
    N5005    N        0.92695    0.39675    0.86372    1.000
    N5006    N        0.91784    0.37640    0.79668    1.000
    Si5007   Si       0.96880    0.41447    0.85823    1.000
    Si5008   Si       0.91187    0.41509    0.82480    1.000
    N5009    N        0.98628    0.38270    0.78716    1.000
    Si5010   Si       0.75813    0.38023    0.88229    1.000
    N5011    N        0.80214    0.39060    0.88955    1.000
    Si5012   Si       0.79838    0.39246    0.96497    1.000
    N5013    N        0.83326    0.41027    0.94767    1.000
    N5014    N        0.76578    0.41350    0.94348    1.000
    Si5015   Si       0.96213    0.40988    0.92501    1.000
    N5016    N        0.91705    0.41053    0.93217    1.000
    Si5017   Si       0.89733    0.40835    0.89306    1.000
    Si5018   Si       0.87665    0.39650    0.95216    1.000
    N5019    N        0.94990    0.37614    0.98756    1.000
    N5020    N        0.86932    0.37563    0.90450    1.000
    N5021    N        0.77123    0.44696    0.04937    1.000
    N5022    N        0.83484    0.46264    0.02531    1.000
    Si5023   Si       0.81493    0.44073    0.05670    1.000
    Si5024   Si       0.76619    0.46329    0.08862    1.000
    N5025    N        0.81232    0.46457    0.09380    1.000
    Si5026   Si       0.76352    0.44465    0.00532    1.000
    N5027    N        0.74061    0.44501    0.11839    1.000
    Si5028   Si       0.87755    0.44885    0.01803    1.000
    N5029    N        0.93903    0.44130    0.02030    1.000
    N5030    N        0.93947    0.43942    0.09307    1.000
    Si5031   Si       0.97951    0.44248    0.11243    1.000
    Si5032   Si       0.91935    0.46339    0.12248    1.000
    N5033    N        0.88334    0.42480    0.05525    1.000
    Si5034   Si       0.74529    0.43168    0.20324    1.000
    Si5035   Si       0.83949    0.46967    0.12826    1.000
    N5036    N        0.77809    0.46045    0.21391    1.000
    N5037    N        0.82205    0.46268    0.16799    1.000
    Si5038   Si       0.80832    0.42067    0.17104    1.000
    N5039    N        0.93792    0.44759    0.19638    1.000
    N5040    N        0.96087    0.47167    0.13987    1.000
    Si5041   Si       0.97555    0.44828    0.22170    1.000
    N5042    N        0.88000    0.45015    0.12945    1.000
    N5043    N        0.80667    0.43734    0.34511    1.000
    N5044    N        0.77776    0.42875    0.27993    1.000
    Si5045   Si       0.77174    0.45005    0.36814    1.000
    Si5046   Si       0.78664    0.46403    0.25687    1.000
    N5047    N        0.84740    0.42274    0.29210    1.000
    Si5048   Si       0.86469    0.45642    0.31551    1.000
    N5049    N        0.87942    0.44111    0.35216    1.000
    N5050    N        0.95545    0.45206    0.25998    1.000
    N5051    N        0.89177    0.47376    0.28805    1.000
    Si5052   Si       0.97555    0.45114    0.36715    1.000
    Si5053   Si       0.84084    0.44186    0.37467    1.000
    N5054    N        0.77066    0.44746    0.41235    1.000
    Si5055   Si       0.74772    0.48099    0.43131    1.000
    N5056    N        0.90508    0.45993    0.41350    1.000
    Si5057   Si       0.90495    0.47379    0.37224    1.000
    N5058    N        0.98440    0.44870    0.40971    1.000
    Si5059   Si       0.90477    0.41951    0.43138    1.000
    Si5060   Si       0.81484    0.44877    0.53745    1.000
    N5061    N        0.78003    0.43647    0.51136    1.000
    Si5062   Si       0.82035    0.43198    0.61752    1.000
    N5063    N        0.84850    0.47297    0.52158    1.000
    Si5064   Si       0.74991    0.46881    0.50835    1.000
    N5065    N        0.83190    0.47186    0.62770    1.000
    N5066    N        0.82122    0.42484    0.57461    1.000
    N5067    N        0.98033    0.44657    0.51698    1.000
    Si5068   Si       0.94520    0.45706    0.54149    1.000
    N5069    N        0.91090    0.43575    0.52314    1.000
    N5070    N        0.94249    0.42649    0.57433    1.000
    Si5071   Si       0.95492    0.42769    0.61584    1.000
    Si5072   Si       0.87574    0.44546    0.49943    1.000
    N5073    N        0.83309    0.47013    0.71327    1.000
    Si5074   Si       0.79064    0.46631    0.71170    1.000
    N5075    N        0.77740    0.42930    0.73334    1.000
    N5076    N        0.77398    0.46154    0.67274    1.000
    Si5077   Si       0.85248    0.43120    0.72309    1.000
    Si5078   Si       0.75782    0.42244    0.66176    1.000
    Si5079   Si       0.97360    0.47660    0.74375    1.000
    N5080    N        0.97804    0.46475    0.62059    1.000
    N5081    N        0.89177    0.44452    0.70514    1.000
    N5082    N        0.91647    0.42353    0.63396    1.000
    N5083    N        0.83099    0.46354    0.82584    1.000
    N5084    N        0.85373    0.43204    0.76646    1.000
    Si5085   Si       0.86362    0.46314    0.85636    1.000
    Si5086   Si       0.83757    0.42619    0.80577    1.000
    N5087    N        0.74184    0.43427    0.79276    1.000
    Si5088   Si       0.98600    0.42555    0.78965    1.000
    N5089    N        0.95428    0.43352    0.82042    1.000
    N5090    N        0.89919    0.46084    0.83074    1.000
    Si5091   Si       0.93641    0.47543    0.81653    1.000
    N5092    N        0.98112    0.43406    0.74840    1.000
    Si5093   Si       0.75823    0.44074    0.90918    1.000
    N5094    N        0.79744    0.45544    0.89677    1.000
    Si5095   Si       0.82603    0.42356    0.90678    1.000
    N5096    N        0.86500    0.43634    0.89066    1.000
    N5097    N        0.78021    0.47971    0.98492    1.000
    N5098    N        0.88644    0.42006    0.98803    1.000
    N5099    N        0.97105    0.43181    0.96299    1.000
    N5100    N        0.97548    0.43817    0.89595    1.000
    Si5101   Si       0.99177    0.47955    0.90134    1.000
    Si5102   Si       0.93489    0.41771    0.98289    1.000
    N5103    N        0.80009    0.52556    0.03493    1.000
    Si5104   Si       0.81328    0.49469    0.00827    1.000
    N5105    N        0.74682    0.50262    0.08357    1.000
    Si5106   Si       0.76028    0.53026    0.04830    1.000
    N5107    N        0.97000    0.50154    0.04581    1.000
    N5108    N        0.91701    0.50592    0.11009    1.000
    N5109    N        0.89792    0.48782    0.01321    1.000
    N5110    N        0.98381    0.53342    0.10829    1.000
    Si5111   Si       0.88262    0.53396    0.10499    1.000
    Si5112   Si       0.94065    0.48715    0.01757    1.000
    N5113    N        0.85025    0.51382    0.12671    1.000
    Si5114   Si       0.74577    0.51923    0.12445    1.000
    N5115    N        0.80165    0.52523    0.21243    1.000
    N5116    N        0.78376    0.51189    0.14758    1.000
    Si5117   Si       0.79549    0.49247    0.18713    1.000
    N5118    N        0.98344    0.49104    0.21033    1.000
    Si5119   Si       0.95367    0.51467    0.13088    1.000
    N5120    N        0.91600    0.50545    0.22983    1.000
    N5121    N        0.93576    0.52725    0.16920    1.000
    Si5122   Si       0.94191    0.49295    0.19714    1.000
    N5123    N        0.84460    0.49600    0.32087    1.000
    N5124    N        0.77061    0.49205    0.35802    1.000
    N5125    N        0.76100    0.50124    0.26395    1.000
    Si5126   Si       0.85513    0.52962    0.34808    1.000
    Si5127   Si       0.86073    0.50233    0.27791    1.000
    N5128    N        0.82284    0.48625    0.26049    1.000
    Si5129   Si       0.79730    0.52219    0.25473    1.000
    Si5130   Si       0.73644    0.51753    0.34133    1.000
    N5131    N        0.94781    0.51743    0.29401    1.000
    Si5132   Si       0.96940    0.50411    0.33087    1.000
    Si5133   Si       0.92807    0.48493    0.26881    1.000
    N5134    N        0.89085    0.51442    0.36824    1.000
    N5135    N        0.94608    0.48445    0.36147    1.000
    N5136    N        0.77199    0.51775    0.42290    1.000
    N5137    N        0.81599    0.50827    0.47320    1.000
    Si5138   Si       0.79844    0.50930    0.38936    1.000
    Si5139   Si       0.85439    0.50452    0.49161    1.000
    Si5140   Si       0.78482    0.53319    0.48952    1.000
    N5141    N        0.83061    0.48056    0.39084    1.000
    N5142    N        0.89696    0.53112    0.43344    1.000
    Si5143   Si       0.91293    0.49176    0.44295    1.000
    Si5144   Si       0.96650    0.53669    0.47648    1.000
    N5145    N        0.95486    0.49949    0.45445    1.000
    N5146    N        0.88778    0.48037    0.47573    1.000
    Si5147   Si       0.78840    0.52476    0.55990    1.000
    N5148    N        0.74752    0.52911    0.57387    1.000
    N5149    N        0.75304    0.51325    0.50920    1.000
    N5150    N        0.79102    0.48280    0.55504    1.000
    Si5151   Si       0.96368    0.50202    0.60519    1.000
    N5152    N        0.94650    0.49509    0.56358    1.000
    Si5153   Si       0.96814    0.53181    0.55067    1.000
    N5154    N        0.87492    0.52762    0.61083    1.000
    N5155    N        0.98157    0.51800    0.51372    1.000
    Si5156   Si       0.84753    0.50979    0.63865    1.000
    N5157    N        0.76829    0.50643    0.71287    1.000
    Si5158   Si       0.75379    0.50183    0.67203    1.000
    N5159    N        0.75471    0.53436    0.64113    1.000
    N5160    N        0.82158    0.53813    0.65828    1.000
    Si5161   Si       0.78117    0.53153    0.74621    1.000
    Si5162   Si       0.87575    0.48626    0.70642    1.000
    Si5163   Si       0.90653    0.53065    0.64297    1.000
    N5164    N        0.95487    0.50337    0.71499    1.000
    Si5165   Si       0.97474    0.51671    0.67986    1.000
    N5166    N        0.94961    0.52209    0.64175    1.000
    N5167    N        0.87942    0.50687    0.66972    1.000
    N5168    N        0.88647    0.51245    0.73961    1.000
    N5169    N        0.78998    0.51515    0.85070    1.000
    Si5170   Si       0.80953    0.49958    0.81258    1.000
    N5171    N        0.77930    0.49864    0.77883    1.000
    N5172    N        0.83679    0.53044    0.79590    1.000
    Si5173   Si       0.85589    0.53904    0.75613    1.000
    N5174    N        0.95965    0.50197    0.84171    1.000
    N5175    N        0.94422    0.48549    0.77462    1.000
    Si5176   Si       0.92679    0.51635    0.74908    1.000
    N5177    N        0.74647    0.53972    0.96691    1.000
    N5178    N        0.85362    0.49929    0.88325    1.000
    Si5179   Si       0.80851    0.49591    0.88691    1.000
    Si5180   Si       0.76548    0.50297    0.95268    1.000
    N5181    N        0.79807    0.51469    0.92445    1.000
    N5182    N        0.84054    0.51582    0.97987    1.000
    N5183    N        0.95731    0.49461    0.97807    1.000
    Si5184   Si       0.88371    0.51652    0.98393    1.000
    Si5185   Si       0.88099    0.52644    0.90361    1.000
    Si5186   Si       0.94790    0.53178    0.87141    1.000
    Si5187   Si       0.94507    0.52206    0.94666    1.000
    N5188    N        0.96087    0.51006    0.90768    1.000
    N5189    N        0.90105    0.51634    0.94285    1.000
    N5190    N        0.80517    0.55564    0.09502    1.000
    Si5191   Si       0.82653    0.55403    0.05691    1.000
    Si5192   Si       0.76949    0.58067    0.09686    1.000
    N5193    N        0.75009    0.57045    0.05891    1.000
    N5194    N        0.86836    0.54580    0.06363    1.000
    N5195    N        0.93446    0.56001    0.06624    1.000
    Si5196   Si       0.89812    0.56786    0.04215    1.000
    N5197    N        0.89965    0.55371    0.00050    1.000
    Si5198   Si       0.97277    0.53900    0.06711    1.000
    Si5199   Si       0.92464    0.59277    0.09481    1.000
    N5200    N        0.74826    0.56300    0.12952    1.000
    Si5201   Si       0.79572    0.56609    0.19955    1.000
    N5202    N        0.75276    0.57365    0.20365    1.000
    Si5203   Si       0.84979    0.58918    0.18775    1.000
    N5204    N        0.81838    0.57143    0.16259    1.000
    Si5205   Si       0.81434    0.53941    0.13285    1.000
    Si5206   Si       0.90066    0.54591    0.23266    1.000
    N5207    N        0.89481    0.57303    0.12432    1.000
    N5208    N        0.93412    0.57006    0.24736    1.000
    Si5209   Si       0.91321    0.56420    0.16516    1.000
    N5210    N        0.88370    0.56427    0.19728    1.000
    N5211    N        0.94188    0.59531    0.17527    1.000
    Si5212   Si       0.77992    0.57755    0.30426    1.000
    Si5213   Si       0.84672    0.56893    0.28631    1.000
    N5214    N        0.80845    0.54984    0.28467    1.000
    N5215    N        0.74720    0.55325    0.31895    1.000
    N5216    N        0.81847    0.54348    0.37179    1.000
    N5217    N        0.76053    0.59650    0.26993    1.000
    N5218    N        0.86847    0.53978    0.26082    1.000
    N5219    N        0.86811    0.56289    0.32234    1.000
    N5220    N        0.93536    0.58578    0.32025    1.000
    Si5221   Si       0.95296    0.56211    0.28585    1.000
    Si5222   Si       0.89723    0.59061    0.33886    1.000
    Si5223   Si       0.97671    0.57800    0.36339    1.000
    Si5224   Si       0.80503    0.58406    0.37373    1.000
    N5225    N        0.77063    0.57074    0.47239    1.000
    N5226    N        0.76647    0.58263    0.39608    1.000
    Si5227   Si       0.75595    0.55997    0.43172    1.000
    N5228    N        0.86681    0.54670    0.49744    1.000
    N5229    N        0.89445    0.58225    0.38299    1.000
    Si5230   Si       0.89243    0.56072    0.46699    1.000
    N5231    N        0.95388    0.55555    0.39590    1.000
    N5232    N        0.93329    0.56310    0.47982    1.000
    Si5233   Si       0.91135    0.54435    0.39388    1.000
    N5234    N        0.87440    0.59728    0.45056    1.000
    Si5235   Si       0.84201    0.57235    0.52280    1.000
    Si5236   Si       0.85146    0.56023    0.59405    1.000
    N5237    N        0.80466    0.54938    0.52636    1.000
    N5238    N        0.81150    0.54128    0.59217    1.000
    N5239    N        0.73958    0.59788    0.53522    1.000
    N5240    N        0.84780    0.59303    0.62276    1.000
    N5241    N        0.86312    0.58162    0.55875    1.000
    N5242    N        0.94957    0.57110    0.55028    1.000
    N5243    N        0.97271    0.58463    0.61368    1.000
    Si5244   Si       0.94148    0.59186    0.51267    1.000
    Si5245   Si       0.79150    0.55340    0.62967    1.000
    Si5246   Si       0.82170    0.56278    0.69288    1.000
    N5247    N        0.78438    0.58532    0.69263    1.000
    N5248    N        0.85327    0.59218    0.69405    1.000
    N5249    N        0.82176    0.54098    0.73068    1.000
    N5250    N        0.91129    0.57281    0.65513    1.000
    Si5251   Si       0.95470    0.56954    0.64983    1.000
    N5252    N        0.98287    0.56023    0.68431    1.000
    Si5253   Si       0.83874    0.57366    0.80341    1.000
    Si5254   Si       0.76051    0.58585    0.79690    1.000
    N5255    N        0.76592    0.56959    0.75770    1.000
    Si5256   Si       0.76113    0.54820    0.86287    1.000
    N5257    N        0.85269    0.57705    0.84608    1.000
    N5258    N        0.85798    0.58209    0.76595    1.000
    N5259    N        0.80059    0.59324    0.81243    1.000
    N5260    N        0.73946    0.55841    0.82599    1.000
    Si5261   Si       0.89455    0.57925    0.85425    1.000
    Si5262   Si       0.94551    0.58922    0.78667    1.000
    N5263    N        0.93659    0.55526    0.76250    1.000
    N5264    N        0.98726    0.58616    0.80030    1.000
    N5265    N        0.97815    0.56590    0.86869    1.000
    N5266    N        0.92269    0.58948    0.82385    1.000
    N5267    N        0.78472    0.58334    0.88035    1.000
    Si5268   Si       0.75919    0.58113    0.96483    1.000
    N5269    N        0.85486    0.55679    0.92290    1.000
    N5270    N        0.80246    0.57595    0.96737    1.000
    Si5271   Si       0.82295    0.54284    0.94837    1.000
    N5272    N        0.95702    0.56046    0.96165    1.000
    N5273    N        0.90741    0.54546    0.87747    1.000
    Si5274   Si       0.86617    0.59547    0.93585    1.000
    Si5275   Si       0.91944    0.58144    0.97353    1.000
    N5276    N        0.77293    0.62311    0.10151    1.000
    N5277    N        0.84618    0.62457    0.09788    1.000
    Si5278   Si       0.85638    0.62191    0.05391    1.000
    Si5279   Si       0.81053    0.64782    0.09792    1.000
    N5280    N        0.82960    0.59177    0.03532    1.000
    N5281    N        0.86929    0.65155    0.02395    1.000
    N5282    N        0.89790    0.61020    0.06108    1.000
    Si5283   Si       0.91191    0.65062    0.04432    1.000
    N5284    N        0.96376    0.60224    0.11089    1.000
    Si5285   Si       0.96259    0.63990    0.99868    1.000
    N5286    N        0.92348    0.61801    0.99716    1.000
    Si5287   Si       0.82044    0.63175    0.24565    1.000
    Si5288   Si       0.75191    0.65393    0.12879    1.000
    N5289    N        0.81999    0.59688    0.21786    1.000
    N5290    N        0.99057    0.59800    0.22069    1.000
    N5291    N        0.86337    0.62708    0.17084    1.000
    Si5292   Si       0.95177    0.62652    0.14737    1.000
    Si5293   Si       0.87655    0.61535    0.12990    1.000
    Si5294   Si       0.94840    0.60257    0.21959    1.000
    N5295    N        0.93159    0.64050    0.23355    1.000
    N5296    N        0.91408    0.63565    0.12544    1.000
    Si5297   Si       0.83591    0.62737    0.31842    1.000
    N5298    N        0.84129    0.61152    0.27806    1.000
    Si5299   Si       0.74670    0.63717    0.26385    1.000
    N5300    N        0.80272    0.60011    0.33285    1.000
    N5301    N        0.78405    0.65467    0.24961    1.000
    N5302    N        0.87893    0.62921    0.33084    1.000
    N5303    N        0.97360    0.63195    0.28128    1.000
    N5304    N        0.97502    0.62181    0.35813    1.000
    Si5305   Si       0.95502    0.62493    0.32052    1.000
    Si5306   Si       0.81400    0.64963    0.40632    1.000
    Si5307   Si       0.84990    0.62556    0.47100    1.000
    N5308    N        0.83077    0.61037    0.39608    1.000
    N5309    N        0.74984    0.64530    0.48444    1.000
    N5310    N        0.77159    0.65123    0.39729    1.000
    N5311    N        0.82178    0.65152    0.44863    1.000
    Si5312   Si       0.74263    0.60114    0.49255    1.000
    Si5313   Si       0.74175    0.61787    0.39245    1.000
    Si5314   Si       0.97296    0.64392    0.46742    1.000
    N5315    N        0.98433    0.62997    0.42851    1.000
    Si5316   Si       0.97749    0.65169    0.39001    1.000
    N5317    N        0.88756    0.64982    0.40772    1.000
    Si5318   Si       0.87242    0.60945    0.40688    1.000
    N5319    N        0.93017    0.65320    0.46343    1.000
    Si5320   Si       0.90676    0.65603    0.50048    1.000
    Si5321   Si       0.81461    0.61824    0.60688    1.000
    Si5322   Si       0.81831    0.64039    0.53761    1.000
    N5323    N        0.79537    0.62127    0.56720    1.000
    Si5324   Si       0.75357    0.60996    0.57609    1.000
    N5325    N        0.82946    0.61035    0.50789    1.000
    N5326    N        0.85548    0.65042    0.55954    1.000
    N5327    N        0.91323    0.62167    0.59090    1.000
    N5328    N        0.90668    0.61666    0.52096    1.000
    Si5329   Si       0.88522    0.61719    0.55803    1.000
    N5330    N        0.97958    0.63277    0.56804    1.000
    Si5331   Si       0.95054    0.60198    0.58145    1.000
    N5332    N        0.97690    0.61400    0.50086    1.000
    Si5333   Si       0.91202    0.65181    0.62173    1.000
    N5334    N        0.78083    0.59588    0.62336    1.000
    Si5335   Si       0.77285    0.61291    0.66218    1.000
    Si5336   Si       0.84944    0.61237    0.73371    1.000
    Si5337   Si       0.77376    0.60274    0.73027    1.000
    N5338    N        0.74166    0.63169    0.72438    1.000
    N5339    N        0.80885    0.62733    0.74679    1.000
    Si5340   Si       0.87654    0.59928    0.65678    1.000
    N5341    N        0.87792    0.64599    0.72711    1.000
    N5342    N        0.88820    0.64134    0.65613    1.000
    Si5343   Si       0.97136    0.64627    0.74315    1.000
    N5344    N        0.83393    0.64184    0.85318    1.000
    N5345    N        0.77073    0.63910    0.85757    1.000
    Si5346   Si       0.81069    0.60397    0.85359    1.000
    Si5347   Si       0.74507    0.65158    0.82467    1.000
    N5348    N        0.94093    0.62676    0.76652    1.000
    Si5349   Si       0.91684    0.63522    0.83286    1.000
    N5350    N        0.88990    0.64614    0.80137    1.000
    Si5351   Si       0.90415    0.64946    0.76104    1.000
    N5352    N        0.89909    0.62179    0.87073    1.000
    N5353    N        0.74573    0.60500    0.99772    1.000
    N5354    N        0.84553    0.62552    0.91423    1.000
    Si5355   Si       0.76453    0.61972    0.89711    1.000
    N5356    N        0.80514    0.64140    0.98103    1.000
    Si5357   Si       0.82369    0.60415    0.99397    1.000
    Si5358   Si       0.76542    0.64503    0.99663    1.000
    N5359    N        0.86303    0.60749    0.97719    1.000
    N5360    N        0.78602    0.65338    0.91482    1.000
    N5361    N        0.90893    0.59903    0.93560    1.000
    Si5362   Si       0.87025    0.65383    0.88701    1.000
    Si5363   Si       0.92415    0.62898    0.90844    1.000
    N5364    N        0.96548    0.63079    0.89766    1.000
    Si5365   Si       0.88710    0.64273    0.98495    1.000
    Si5366   Si       0.79137    0.69502    0.04145    1.000
    N5367    N        0.82367    0.67387    0.06318    1.000
    Si5368   Si       0.84443    0.68383    0.00488    1.000
    N5369    N        0.80783    0.70606    0.00418    1.000
    Si5370   Si       0.86179    0.69533    0.06927    1.000
    N5371    N        0.76285    0.66219    0.03444    1.000
    N5372    N        0.96813    0.67396    0.10776    1.000
    N5373    N        0.90018    0.67873    0.07629    1.000
    Si5374   Si       0.92366    0.67530    0.11288    1.000
    Si5375   Si       0.98584    0.66201    0.06933    1.000
    N5376    N        0.95576    0.65371    0.04015    1.000
    N5377    N        0.79391    0.67203    0.12873    1.000
    N5378    N        0.84168    0.66796    0.22710    1.000
    N5379    N        0.84645    0.69565    0.16148    1.000
    Si5380   Si       0.79989    0.70181    0.16069    1.000
    N5381    N        0.78256    0.70514    0.20083    1.000
    Si5382   Si       0.80342    0.69309    0.23908    1.000
    Si5383   Si       0.86244    0.66638    0.18873    1.000
    N5384    N        0.96184    0.69643    0.24056    1.000
    Si5385   Si       0.93807    0.67507    0.20989    1.000
    N5386    N        0.89765    0.69049    0.20165    1.000
    N5387    N        0.91078    0.71327    0.13325    1.000
    Si5388   Si       0.87308    0.69776    0.24053    1.000
    N5389    N        0.95817    0.66094    0.17520    1.000
    N5390    N        0.77396    0.69191    0.34088    1.000
    Si5391   Si       0.81663    0.69527    0.34068    1.000
    Si5392   Si       0.75906    0.69878    0.30268    1.000
    N5393    N        0.83930    0.67197    0.31061    1.000
    N5394    N        0.89269    0.69737    0.34953    1.000
    N5395    N        0.89786    0.68156    0.27251    1.000
    Si5396   Si       0.88448    0.67204    0.31281    1.000
    Si5397   Si       0.93644    0.69389    0.35126    1.000
    N5398    N        0.93763    0.66520    0.31572    1.000
    Si5399   Si       0.94002    0.66249    0.27187    1.000
    Si5400   Si       0.75596    0.68719    0.38037    1.000
    N5401    N        0.83073    0.67931    0.37954    1.000
    Si5402   Si       0.82997    0.68428    0.47812    1.000
    N5403    N        0.75897    0.71190    0.47838    1.000
    N5404    N        0.86836    0.66451    0.48574    1.000
    N5405    N        0.94520    0.71353    0.45006    1.000
    Si5406   Si       0.87405    0.68495    0.38594    1.000
    N5407    N        0.88719    0.70994    0.41729    1.000
    Si5408   Si       0.91889    0.67704    0.43003    1.000
    N5409    N        0.94540    0.67788    0.39218    1.000
    Si5410   Si       0.85103    0.67969    0.59182    1.000
    N5411    N        0.80447    0.67423    0.51495    1.000
    Si5412   Si       0.76098    0.68084    0.50584    1.000
    N5413    N        0.82114    0.66017    0.61730    1.000
    Si5414   Si       0.97957    0.66689    0.59816    1.000
    N5415    N        0.89057    0.68744    0.60704    1.000
    N5416    N        0.92484    0.68185    0.52891    1.000
    N5417    N        0.96763    0.70665    0.58181    1.000
    Si5418   Si       0.94374    0.71780    0.54635    1.000
    N5419    N        0.84695    0.69392    0.66940    1.000
    N5420    N        0.79157    0.69045    0.73214    1.000
    Si5421   Si       0.76376    0.66984    0.70833    1.000
    Si5422   Si       0.80909    0.68204    0.65335    1.000
    N5423    N        0.73833    0.70463    0.69755    1.000
    N5424    N        0.78550    0.65334    0.67320    1.000
    Si5425   Si       0.98073    0.66077    0.66694    1.000
    N5426    N        0.96026    0.66238    0.70549    1.000
    Si5427   Si       0.93908    0.69858    0.71405    1.000
    N5428    N        0.90341    0.70160    0.69171    1.000
    Si5429   Si       0.87747    0.66716    0.68812    1.000
    N5430    N        0.95470    0.65863    0.63171    1.000
    N5431    N        0.76527    0.67346    0.79034    1.000
    N5432    N        0.83531    0.68638    0.78973    1.000
    Si5433   Si       0.80227    0.66698    0.76834    1.000
    Si5434   Si       0.85648    0.66458    0.82224    1.000
    N5435    N        0.79831    0.69916    0.84657    1.000
    N5436    N        0.88210    0.68250    0.85459    1.000
    Si5437   Si       0.97241    0.68768    0.80535    1.000
    N5438    N        0.92258    0.69059    0.75569    1.000
    Si5439   Si       0.98565    0.66023    0.86585    1.000
    N5440    N        0.95348    0.65791    0.83239    1.000
    Si5441   Si       0.80489    0.66871    0.87660    1.000
    Si5442   Si       0.75463    0.68097    0.93035    1.000
    N5443    N        0.83659    0.68690    0.90364    1.000
    N5444    N        0.85855    0.67394    0.96489    1.000
    Si5445   Si       0.82437    0.65970    0.94076    1.000
    N5446    N        0.98527    0.67278    0.98064    1.000
    Si5447   Si       0.95366    0.70393    0.97953    1.000
    N5448    N        0.91685    0.67757    0.98527    1.000
    N5449    N        0.90162    0.66544    0.91670    1.000
    Si5450   Si       0.89679    0.69568    0.94802    1.000
    Si5451   Si       0.80713    0.73809    0.09959    1.000
    Si5452   Si       0.75668    0.75438    0.03895    1.000
    N5453    N        0.78154    0.72749    0.06631    1.000
    N5454    N        0.84863    0.72569    0.09916    1.000
    N5455    N        0.74887    0.72724    0.00540    1.000
    N5456    N        0.86363    0.71536    0.02908    1.000
    Si5457   Si       0.88340    0.75436    0.02678    1.000
    N5458    N        0.98033    0.74175    0.10617    1.000
    N5459    N        0.97187    0.73262    0.00562    1.000
    N5460    N        0.92159    0.76131    0.04767    1.000
    Si5461   Si       0.94355    0.76606    0.00700    1.000
    N5462    N        0.79723    0.74052    0.14210    1.000
    Si5463   Si       0.86800    0.72640    0.13922    1.000
    N5464    N        0.98028    0.76603    0.23175    1.000
    Si5465   Si       0.90834    0.73241    0.18624    1.000
    N5466    N        0.90696    0.74619    0.22832    1.000
    N5467    N        0.87461    0.75648    0.16854    1.000
    N5468    N        0.94953    0.74345    0.17488    1.000
    Si5469   Si       0.94744    0.73906    0.24180    1.000
    Si5470   Si       0.94341    0.74173    0.13135    1.000
    Si5471   Si       0.82120    0.74095    0.28653    1.000
    N5472    N        0.82398    0.73513    0.33091    1.000
    Si5473   Si       0.75394    0.74839    0.26600    1.000
    N5474    N        0.84704    0.72936    0.25180    1.000
    Si5475   Si       0.82759    0.76639    0.36070    1.000
    N5476    N        0.78648    0.71781    0.27234    1.000
    N5477    N        0.94557    0.74610    0.28320    1.000
    N5478    N        0.96219    0.72784    0.34373    1.000
    Si5479   Si       0.95873    0.76510    0.36474    1.000
    Si5480   Si       0.98082    0.73007    0.30512    1.000
    Si5481   Si       0.87098    0.76774    0.24666    1.000
    N5482    N        0.75436    0.72091    0.40569    1.000
    Si5483   Si       0.79124    0.74229    0.47758    1.000
    Si5484   Si       0.75845    0.76538    0.40377    1.000
    N5485    N        0.84712    0.76273    0.39965    1.000
    Si5486   Si       0.85567    0.73838    0.43323    1.000
    N5487    N        0.76953    0.76445    0.44606    1.000
    N5488    N        0.82704    0.72459    0.46187    1.000
    Si5489   Si       0.91745    0.73962    0.43041    1.000
    N5490    N        0.93701    0.76437    0.40157    1.000
    N5491    N        0.88839    0.76045    0.45317    1.000
    Si5492   Si       0.97968    0.71979    0.47524    1.000
    N5493    N        0.79805    0.74968    0.52132    1.000
    N5494    N        0.77032    0.75152    0.58698    1.000
    Si5495   Si       0.80648    0.74007    0.61000    1.000
    Si5496   Si       0.76150    0.74269    0.54342    1.000
    N5497    N        0.84123    0.72325    0.59126    1.000
    N5498    N        0.90991    0.74185    0.56288    1.000
    N5499    N        0.96873    0.73734    0.51486    1.000
    Si5500   Si       0.88615    0.73138    0.59805    1.000
    Si5501   Si       0.98407    0.74410    0.59813    1.000
    Si5502   Si       0.97666    0.77653    0.53078    1.000
    Si5503   Si       0.79994    0.73382    0.73469    1.000
    Si5504   Si       0.76057    0.73712    0.67391    1.000
    N5505    N        0.79160    0.75546    0.69869    1.000
    N5506    N        0.85897    0.76225    0.68790    1.000
    N5507    N        0.78550    0.71762    0.64307    1.000
    Si5508   Si       0.98751    0.73974    0.66987    1.000
    Si5509   Si       0.94403    0.76892    0.72252    1.000
    N5510    N        0.96349    0.73364    0.70597    1.000
    N5511    N        0.89949    0.74894    0.63563    1.000
    Si5512   Si       0.87097    0.76842    0.72902    1.000
    N5513    N        0.90978    0.75465    0.74386    1.000
    Si5514   Si       0.87795    0.72797    0.66879    1.000
    N5515    N        0.96610    0.75516    0.63498    1.000
    N5516    N        0.77112    0.74182    0.76560    1.000
    Si5517   Si       0.84775    0.73031    0.79031    1.000
    Si5518   Si       0.80251    0.74171    0.84614    1.000
    N5519    N        0.82656    0.75925    0.81606    1.000
    N5520    N        0.76521    0.76567    0.84290    1.000
    N5521    N        0.84101    0.74473    0.75057    1.000
    Si5522   Si       0.75644    0.77040    0.79789    1.000
    N5523    N        0.88861    0.72939    0.80691    1.000
    Si5524   Si       0.96269    0.74792    0.84129    1.000
    Si5525   Si       0.92017    0.72999    0.77641    1.000
    N5526    N        0.95664    0.72938    0.80202    1.000
    N5527    N        0.93890    0.72199    0.86919    1.000
    Si5528   Si       0.90067    0.72234    0.84970    1.000
    N5529    N        0.81237    0.74719    0.88851    1.000
    Si5530   Si       0.78347    0.73091    0.97783    1.000
    Si5531   Si       0.85237    0.72785    0.89917    1.000
    Si5532   Si       0.77279    0.74347    0.90423    1.000
    N5533    N        0.77433    0.71594    0.93879    1.000
    N5534    N        0.79404    0.77160    0.97497    1.000
    N5535    N        0.94180    0.71637    0.94151    1.000
    N5536    N        0.87853    0.75053    0.87436    1.000
    Si5537   Si       0.96491    0.72322    0.90551    1.000
    Si5538   Si       0.88982    0.77070    0.94986    1.000
    N5539    N        0.87490    0.73157    0.93620    1.000
    N5540    N        0.98170    0.76435    0.91519    1.000
    N5541    N        0.90587    0.75773    0.98871    1.000
    N5542    N        0.78184    0.78962    0.03712    1.000
    Si5543   Si       0.79757    0.81307    0.07019    1.000
    N5544    N        0.85363    0.78558    0.02704    1.000
    N5545    N        0.80489    0.78199    0.09986    1.000
    Si5546   Si       0.81543    0.79256    0.00600    1.000
    Si5547   Si       0.86896    0.82582    0.03948    1.000
    Si5548   Si       0.92961    0.79154    0.07703    1.000
    N5549    N        0.97247    0.80365    0.06485    1.000
    N5550    N        0.90138    0.82275    0.06897    1.000
    N5551    N        0.92953    0.78132    0.11907    1.000
    N5552    N        0.75974    0.80480    0.15273    1.000
    N5553    N        0.82707    0.81063    0.15846    1.000
    Si5554   Si       0.79675    0.78366    0.14199    1.000
    N5555    N        0.86016    0.80057    0.21872    1.000
    Si5556   Si       0.86501    0.79784    0.17645    1.000
    N5557    N        0.96164    0.81206    0.17646    1.000
    N5558    N        0.89483    0.82574    0.16151    1.000
    Si5559   Si       0.93274    0.81755    0.14320    1.000
    Si5560   Si       0.97795    0.77453    0.18958    1.000
    Si5561   Si       0.79408    0.81515    0.27767    1.000
    Si5562   Si       0.76717    0.81254    0.35246    1.000
    N5563    N        0.75731    0.79211    0.27122    1.000
    N5564    N        0.82515    0.78239    0.27956    1.000
    Si5565   Si       0.85593    0.80671    0.29926    1.000
    N5566    N        0.85738    0.79468    0.34114    1.000
    N5567    N        0.78922    0.82666    0.31841    1.000
    N5568    N        0.89259    0.78825    0.27907    1.000
    N5569    N        0.96565    0.81247    0.28188    1.000
    N5570    N        0.93144    0.79003    0.33867    1.000
    Si5571   Si       0.93332    0.78658    0.29743    1.000
    Si5572   Si       0.89610    0.81417    0.35405    1.000
    N5573    N        0.78676    0.77715    0.37284    1.000
    Si5574   Si       0.85248    0.80318    0.41215    1.000
    N5575    N        0.83977    0.80616    0.45408    1.000
    Si5576   Si       0.93277    0.82485    0.49796    1.000
    N5577    N        0.96372    0.82387    0.39954    1.000
    N5578    N        0.89800    0.82551    0.47133    1.000
    Si5579   Si       0.87288    0.79165    0.47747    1.000
    N5580    N        0.89531    0.81887    0.40092    1.000
    N5581    N        0.95293    0.79754    0.46203    1.000
    Si5582   Si       0.93231    0.80430    0.42134    1.000
    N5583    N        0.81600    0.80472    0.57021    1.000
    Si5584   Si       0.82235    0.78595    0.53018    1.000
    Si5585   Si       0.84468    0.80199    0.60403    1.000
    Si5586   Si       0.75131    0.80971    0.51439    1.000
    N5587    N        0.79395    0.81169    0.50561    1.000
    N5588    N        0.86573    0.78097    0.52009    1.000
    N5589    N        0.88517    0.80294    0.58549    1.000
    N5590    N        0.93536    0.79381    0.52810    1.000
    Si5591   Si       0.89810    0.78315    0.54869    1.000
    Si5592   Si       0.90129    0.83564    0.61308    1.000
    Si5593   Si       0.82067    0.77839    0.67559    1.000
    N5594    N        0.81709    0.82168    0.68150    1.000
    N5595    N        0.82152    0.77710    0.63037    1.000
    N5596    N        0.75040    0.83043    0.71504    1.000
    N5597    N        0.87803    0.81339    0.72911    1.000
    Si5598   Si       0.89982    0.82465    0.69187    1.000
    N5599    N        0.93908    0.82171    0.62949    1.000
    Si5600   Si       0.92896    0.77965    0.64482    1.000
    N5601    N        0.92889    0.79173    0.68810    1.000
    N5602    N        0.87870    0.82731    0.65278    1.000
    N5603    N        0.78091    0.80606    0.78791    1.000
    Si5604   Si       0.81704    0.80147    0.81077    1.000
    N5605    N        0.80984    0.81565    0.85323    1.000
    Si5606   Si       0.77009    0.80318    0.86758    1.000
    N5607    N        0.84641    0.82506    0.79280    1.000
    N5608    N        0.93499    0.78408    0.84814    1.000
    Si5609   Si       0.94013    0.82211    0.82637    1.000
    N5610    N        0.97889    0.82418    0.81021    1.000
    N5611    N        0.91806    0.82089    0.78818    1.000
    Si5612   Si       0.95863    0.82633    0.77029    1.000
    Si5613   Si       0.88328    0.83162    0.76758    1.000
    N5614    N        0.96973    0.79070    0.74970    1.000
    Si5615   Si       0.76289    0.79236    0.95142    1.000
    N5616    N        0.76455    0.78600    0.90824    1.000
    N5617    N        0.86021    0.80259    0.95184    1.000
    Si5618   Si       0.96028    0.79398    0.93734    1.000
    N5619    N        0.87738    0.82022    0.87490    1.000
    N5620    N        0.92003    0.78707    0.92047    1.000
    N5621    N        0.95972    0.79469    0.98001    1.000
    N5622    N        0.98511    0.83039    0.93689    1.000
    Si5623   Si       0.90232    0.78569    0.87889    1.000
    Si5624   Si       0.84436    0.87474    0.08617    1.000
    N5625    N        0.75617    0.86936    0.02760    1.000
    Si5626   Si       0.77234    0.87768    0.06660    1.000
    N5627    N        0.77261    0.84257    0.09300    1.000
    N5628    N        0.83549    0.83493    0.06767    1.000
    N5629    N        0.88198    0.85549    0.01166    1.000
    Si5630   Si       0.92007    0.86162    0.07934    1.000
    N5631    N        0.94861    0.86814    0.04743    1.000
    Si5632   Si       0.95889    0.87324    0.00571    1.000
    N5633    N        0.94222    0.85366    0.11601    1.000
    Si5634   Si       0.98453    0.84169    0.05093    1.000
    N5635    N        0.88615    0.88840    0.08093    1.000
    N5636    N        0.84336    0.87585    0.13044    1.000
    Si5637   Si       0.82394    0.85361    0.16138    1.000
    N5638    N        0.84772    0.86125    0.19857    1.000
    N5639    N        0.78364    0.87135    0.15799    1.000
    Si5640   Si       0.75619    0.84636    0.13626    1.000
    Si5641   Si       0.76776    0.87727    0.23581    1.000
    N5642    N        0.79454    0.84405    0.24294    1.000
    Si5643   Si       0.83671    0.83786    0.23397    1.000
    Si5644   Si       0.96440    0.88859    0.13177    1.000
    N5645    N        0.91869    0.85966    0.21872    1.000
    Si5646   Si       0.88919    0.86213    0.18499    1.000
    N5647    N        0.98627    0.85022    0.23025    1.000
    N5648    N        0.95859    0.88797    0.17442    1.000
    Si5649   Si       0.95666    0.85104    0.19841    1.000
    N5650    N        0.84724    0.84378    0.27561    1.000
    Si5651   Si       0.86673    0.87436    0.30125    1.000
    N5652    N        0.94833    0.87942    0.28609    1.000
    N5653    N        0.96860    0.87677    0.35589    1.000
    N5654    N        0.88925    0.84761    0.32583    1.000
    Si5655   Si       0.97973    0.85108    0.27468    1.000
    Si5656   Si       0.92170    0.88798    0.25236    1.000
    Si5657   Si       0.75144    0.86597    0.46193    1.000
    N5658    N        0.76105    0.84260    0.38322    1.000
    Si5659   Si       0.79843    0.86023    0.40186    1.000
    N5660    N        0.78925    0.85425    0.44431    1.000
    N5661    N        0.83857    0.84257    0.39754    1.000
    Si5662   Si       0.81368    0.83492    0.47512    1.000
    N5663    N        0.96825    0.85112    0.49663    1.000
    Si5664   Si       0.96468    0.86836    0.39811    1.000
    Si5665   Si       0.88052    0.86195    0.40651    1.000
    N5666    N        0.87057    0.88226    0.44399    1.000
    Si5667   Si       0.88378    0.86372    0.48458    1.000
    N5668    N        0.92330    0.87835    0.40584    1.000
    N5669    N        0.80158    0.87414    0.55464    1.000
    N5670    N        0.76394    0.84920    0.60885    1.000
    Si5671   Si       0.75994    0.87456    0.54176    1.000
    Si5672   Si       0.79852    0.84304    0.58674    1.000
    N5673    N        0.83352    0.84787    0.61354    1.000
    Si5674   Si       0.83277    0.88589    0.52844    1.000
    N5675    N        0.84288    0.85654    0.49806    1.000
    N5676    N        0.90982    0.87370    0.59448    1.000
    N5677    N        0.90412    0.85127    0.52429    1.000
    Si5678   Si       0.90923    0.88564    0.55135    1.000
    N5679    N        0.85222    0.88683    0.67585    1.000
    Si5680   Si       0.78857    0.84823    0.70204    1.000
    N5681    N        0.78872    0.88143    0.67291    1.000
    Si5682   Si       0.84223    0.84948    0.65757    1.000
    Si5683   Si       0.75961    0.87729    0.64250    1.000
    N5684    N        0.79836    0.85656    0.74368    1.000
    Si5685   Si       0.95820    0.87362    0.70872    1.000
    N5686    N        0.91814    0.86396    0.69688    1.000
    Si5687   Si       0.97029    0.84698    0.64474    1.000
    N5688    N        0.96314    0.89060    0.63711    1.000
    N5689    N        0.98665    0.84940    0.68577    1.000
    Si5690   Si       0.82704    0.85966    0.77525    1.000
    N5691    N        0.85176    0.87848    0.86796    1.000
    Si5692   Si       0.76388    0.83380    0.75850    1.000
    N5693    N        0.80965    0.88663    0.80482    1.000
    N5694    N        0.86901    0.87282    0.76282    1.000
    N5695    N        0.92852    0.85892    0.84443    1.000
    N5696    N        0.96036    0.86474    0.74990    1.000
    Si5697   Si       0.89111    0.85889    0.86729    1.000
    Si5698   Si       0.95765    0.89013    0.85307    1.000
    Si5699   Si       0.79482    0.88081    0.92840    1.000
    N5700    N        0.81849    0.84601    0.91742    1.000
    Si5701   Si       0.77826    0.85627    0.99314    1.000
    Si5702   Si       0.83930    0.84013    0.95717    1.000
    Si5703   Si       0.83504    0.83773    0.87896    1.000
    N5704    N        0.81560    0.83433    0.99371    1.000
    N5705    N        0.75417    0.83303    0.96424    1.000
    N5706    N        0.76592    0.88654    0.89576    1.000
    Si5707   Si       0.94543    0.87939    0.92439    1.000
    N5708    N        0.86198    0.87840    0.95242    1.000
    N5709    N        0.90603    0.87905    0.90321    1.000
    Si5710   Si       0.89452    0.88118    0.97966    1.000
    N5711    N        0.93613    0.86818    0.96723    1.000
    N5712    N        0.97388    0.87602    0.89003    1.000
    Si5713   Si       0.81817    0.93863    0.05329    1.000
    N5714    N        0.75042    0.90764    0.08823    1.000
    Si5715   Si       0.76981    0.94241    0.10494    1.000
    N5716    N        0.79253    0.94109    0.01957    1.000
    N5717    N        0.86056    0.93975    0.04495    1.000
    N5718    N        0.81191    0.89684    0.06669    1.000
    Si5719   Si       0.88767    0.93401    0.07965    1.000
    N5720    N        0.94698    0.92332    0.11343    1.000
    Si5721   Si       0.87264    0.94788    0.00509    1.000
    N5722    N        0.97210    0.91586    0.00239    1.000
    N5723    N        0.87348    0.95003    0.11917    1.000
    Si5724   Si       0.86221    0.91360    0.14393    1.000
    Si5725   Si       0.79019    0.94485    0.23976    1.000
    Si5726   Si       0.78810    0.91467    0.17062    1.000
    N5727    N        0.77716    0.91158    0.21244    1.000
    N5728    N        0.82923    0.92887    0.16920    1.000
    N5729    N        0.75995    0.93812    0.14667    1.000
    N5730    N        0.93905    0.92280    0.23156    1.000
    Si5731   Si       0.93106    0.92046    0.18830    1.000
    N5732    N        0.89317    0.90477    0.17330    1.000
    Si5733   Si       0.97025    0.94718    0.25098    1.000
    N5734    N        0.81912    0.92653    0.26393    1.000
    Si5735   Si       0.82086    0.93595    0.30854    1.000
    Si5736   Si       0.77067    0.92860    0.36338    1.000
    N5737    N        0.77903    0.93526    0.32086    1.000
    Si5738   Si       0.83619    0.91018    0.36434    1.000
    Si5739   Si       0.74776    0.93835    0.29081    1.000
    N5740    N        0.83786    0.89724    0.32391    1.000
    N5741    N        0.74582    0.90027    0.27088    1.000
    Si5742   Si       0.86307    0.93446    0.26156    1.000
    N5743    N        0.92652    0.92699    0.34152    1.000
    Si5744   Si       0.95472    0.90021    0.32211    1.000
    N5745    N        0.88455    0.89985    0.27143    1.000
    N5746    N        0.98454    0.93448    0.31460    1.000
    N5747    N        0.77266    0.93634    0.44995    1.000
    N5748    N        0.79930    0.89931    0.38296    1.000
    Si5749   Si       0.77991    0.92732    0.49139    1.000
    N5750    N        0.91951    0.89430    0.47630    1.000
    N5751    N        0.87419    0.94678    0.47613    1.000
    N5752    N        0.87297    0.89733    0.37874    1.000
    Si5753   Si       0.91423    0.91238    0.37947    1.000
    N5754    N        0.91537    0.93902    0.41622    1.000
    Si5755   Si       0.89669    0.91850    0.44888    1.000
    N5756    N        0.98616    0.92451    0.47887    1.000
    Si5757   Si       0.95834    0.89499    0.49649    1.000
    Si5758   Si       0.85754    0.93842    0.51420    1.000
    N5759    N        0.82025    0.91831    0.50336    1.000
    N5760    N        0.76079    0.88907    0.49936    1.000
    N5761    N        0.87075    0.90512    0.53909    1.000
    Si5762   Si       0.96604    0.93133    0.56062    1.000
    N5763    N        0.93155    0.93893    0.58872    1.000
    N5764    N        0.94680    0.90247    0.53768    1.000
    Si5765   Si       0.92727    0.90598    0.62053    1.000
    N5766    N        0.75132    0.91633    0.62438    1.000
    Si5767   Si       0.81970    0.91352    0.67965    1.000
    N5768    N        0.82159    0.93689    0.71733    1.000
    Si5769   Si       0.77949    0.94247    0.73306    1.000
    N5770    N        0.81214    0.94293    0.64662    1.000
    N5771    N        0.75733    0.94328    0.69531    1.000
    Si5772   Si       0.76845    0.94725    0.65194    1.000
    Si5773   Si       0.98415    0.94840    0.72676    1.000
    N5774    N        0.90638    0.92158    0.65597    1.000
    N5775    N        0.97416    0.91523    0.70100    1.000
    Si5776   Si       0.89152    0.89713    0.68991    1.000
    N5777    N        0.88951    0.92460    0.72538    1.000
    N5778    N        0.75724    0.92107    0.76651    1.000
    Si5779   Si       0.83905    0.90484    0.83432    1.000
    N5780    N        0.81060    0.93310    0.85152    1.000
    Si5781   Si       0.77696    0.91565    0.80567    1.000
    N5782    N        0.74724    0.89887    0.83272    1.000
    N5783    N        0.86741    0.92461    0.80849    1.000
    N5784    N        0.92765    0.92359    0.77329    1.000
    Si5785   Si       0.88449    0.91277    0.76890    1.000
    N5786    N        0.94046    0.92832    0.86393    1.000
    Si5787   Si       0.96323    0.90111    0.77505    1.000
    N5788    N        0.97924    0.89442    0.81488    1.000
    Si5789   Si       0.78783    0.92381    0.88490    1.000
    Si5790   Si       0.80112    0.93143    0.97854    1.000
    N5791    N        0.81927    0.91747    0.91702    1.000
    N5792    N        0.84204    0.94624    0.97382    1.000
    N5793    N        0.78887    0.89212    0.96936    1.000
    Si5794   Si       0.84393    0.95028    0.93049    1.000
    Si5795   Si       0.86182    0.89628    0.90975    1.000
    N5796    N        0.90513    0.92098    0.98900    1.000
    N5797    N        0.87904    0.93896    0.90958    1.000
    Si5798   Si       0.94286    0.93317    0.97382    1.000
    N5799    N        0.94804    0.92279    0.93313    1.000
    Si5800   Si       0.92165    0.94177    0.90138    1.000
    Si5801   Si       0.75636    0.96243    0.00720    1.000
    Si5802   Si       0.84120    0.97992    0.10875    1.000
    N5803    N        0.80823    0.95705    0.09070    1.000
    N5804    N        0.86189    0.00302    0.07510    1.000
    N5805    N        0.74258    0.99767    0.03031    1.000
    N5806    N        0.74094    0.97427    0.09699    1.000
    N5807    N        0.89365    0.98699    0.01027    1.000
    N5808    N        0.98119    0.99390    0.08607    1.000
    N5809    N        0.92110    0.96048    0.06983    1.000
    Si5810   Si       0.89908    0.99554    0.05276    1.000
    Si5811   Si       0.96165    0.95171    0.08452    1.000
    N5812    N        0.80661    0.97737    0.21467    1.000
    Si5813   Si       0.84096    0.96134    0.19478    1.000
    N5814    N        0.74628    0.00250    0.16530    1.000
    N5815    N        0.87133    0.95905    0.22675    1.000
    N5816    N        0.98931    0.97407    0.22042    1.000
    N5817    N        0.93584    0.95996    0.17470    1.000
    Si5818   Si       0.97163    0.98492    0.17950    1.000
    N5819    N        0.87103    0.98682    0.17454    1.000
    Si5820   Si       0.88942    0.99764    0.21208    1.000
    Si5821   Si       0.90318    0.97242    0.14616    1.000
    N5822    N        0.75743    0.96885    0.26054    1.000
    Si5823   Si       0.80491    0.98879    0.36288    1.000
    N5824    N        0.82973    0.95198    0.35411    1.000
    N5825    N        0.85711    0.96047    0.29692    1.000
    Si5826   Si       0.87254    0.99803    0.30778    1.000
    N5827    N        0.94567    0.97346    0.27733    1.000
    N5828    N        0.91261    0.00052    0.32643    1.000
    N5829    N        0.97187    0.98049    0.35031    1.000
    Si5830   Si       0.94353    0.96678    0.32185    1.000
    Si5831   Si       0.92611    0.00989    0.26646    1.000
    Si5832   Si       0.76864    0.97109    0.42666    1.000
    N5833    N        0.77566    0.96575    0.38490    1.000
    N5834    N        0.79556    0.99875    0.44853    1.000
    Si5835   Si       0.77662    0.00189    0.48787    1.000
    Si5836   Si       0.97353    0.96517    0.48851    1.000
    Si5837   Si       0.94564    0.96608    0.42814    1.000
    N5838    N        0.98755    0.95452    0.42230    1.000
    Si5839   Si       0.89451    0.98650    0.47181    1.000
    N5840    N        0.93696    0.00348    0.40936    1.000
    N5841    N        0.93395    0.97129    0.46902    1.000
    N5842    N        0.87064    0.00886    0.44147    1.000
    N5843    N        0.79861    0.97243    0.58294    1.000
    N5844    N        0.84741    0.97679    0.53296    1.000
    Si5845   Si       0.76005    0.98967    0.59210    1.000
    Si5846   Si       0.80468    0.98052    0.54104    1.000
    N5847    N        0.77682    0.96480    0.51247    1.000
    Si5848   Si       0.82700    0.97257    0.61832    1.000
    N5849    N        0.86935    0.96551    0.61881    1.000
    Si5850   Si       0.90972    0.97396    0.59843    1.000
    N5851    N        0.97389    0.96533    0.53362    1.000
    N5852    N        0.89968    0.00823    0.57364    1.000
    N5853    N        0.75018    0.98291    0.63498    1.000
    Si5854   Si       0.86014    0.96170    0.72583    1.000
    N5855    N        0.83441    0.00393    0.72619    1.000
    N5856    N        0.92648    0.98641    0.63596    1.000
    N5857    N        0.88186    0.98224    0.69273    1.000
    N5858    N        0.95393    0.97691    0.73953    1.000
    Si5859   Si       0.91803    0.95637    0.74752    1.000
    Si5860   Si       0.89426    0.96303    0.65558    1.000
    Si5861   Si       0.80474    0.97417    0.83548    1.000
    N5862    N        0.84069    0.99045    0.82170    1.000
    N5863    N        0.76627    0.96070    0.81626    1.000
    N5864    N        0.77457    0.98006    0.75317    1.000
    Si5865   Si       0.74583    0.97449    0.85369    1.000
    Si5866   Si       0.74196    0.96770    0.78013    1.000
    N5867    N        0.78591    0.00984    0.85133    1.000
    N5868    N        0.98290    0.98509    0.83933    1.000
    Si5869   Si       0.87768    0.96969    0.80770    1.000
    N5870    N        0.91393    0.98345    0.82681    1.000
    Si5871   Si       0.94682    0.96830    0.85131    1.000
    N5872    N        0.88110    0.97213    0.76410    1.000
    N5873    N        0.76855    0.95927    0.96309    1.000
    Si5874   Si       0.77770    0.97957    0.92490    1.000
    N5875    N        0.76430    0.95885    0.89036    1.000
    N5876    N        0.82160    0.98728    0.92475    1.000
    Si5877   Si       0.91434    0.00503    0.97851    1.000
    N5878    N        0.92890    0.98431    0.89200    1.000
    N5879    N        0.94853    0.97617    0.97006    1.000
