# CIF file generated by openbabel 3.1.1, see https://openbabel.org
data_I
_chemical_name_common '3.01-15.aims'
_cell_length_a 39.8806
_cell_length_b 39.8806
_cell_length_c 39.8806
_cell_angle_alpha 90
_cell_angle_beta 90
_cell_angle_gamma 90
loop_
    _atom_site_label
    _atom_site_type_symbol
    _atom_site_fract_x
    _atom_site_fract_y
    _atom_site_fract_z
    _atom_site_occupancy
    N0       N        0.04850    0.04107    0.08227    1.000
    N1       N        0.05542    0.04269    0.00532    1.000
    Si2      Si       0.03668    0.02785    0.04169    1.000
    N3       N        0.99586    0.04244    0.04444    1.000
    N4       N        0.10656    0.02426    0.03642    1.000
    Si5      Si       0.09335    0.06314    0.02204    1.000
    Si6      Si       0.12479    0.02105    0.07690    1.000
    N7       N        0.12742    0.05133    0.10631    1.000
    N8       N        0.23305    0.04167    0.07177    1.000
    N9       N        0.04371    0.05457    0.15275    1.000
    N10      N        0.04946    0.03801    0.22998    1.000
    Si11     Si       0.02326    0.01426    0.15699    1.000
    Si12     Si       0.08470    0.06068    0.23852    1.000
    Si13     Si       0.01466    0.06606    0.23529    1.000
    N14      N        0.16828    0.01176    0.14975    1.000
    Si15     Si       0.21850    0.06246    0.22601    1.000
    Si16     Si       0.15949    0.05255    0.13736    1.000
    N17      N        0.12432    0.05776    0.22314    1.000
    N18      N        0.22209    0.03094    0.19516    1.000
    Si19     Si       0.15579    0.03757    0.24732    1.000
    Si20     Si       0.04821    0.05725    0.30347    1.000
    N21      N        0.10637    0.02067    0.34291    1.000
    N22      N        0.08614    0.05726    0.28081    1.000
    N23      N        0.04102    0.01552    0.31714    1.000
    N24      N        0.01322    0.06408    0.28134    1.000
    Si25     Si       0.11796    0.04503    0.30842    1.000
    N26      N        0.14464    0.02052    0.28652    1.000
    N27      N        0.23917    0.03088    0.34188    1.000
    Si28     Si       0.22828    0.06266    0.36940    1.000
    Si29     Si       0.09352    0.01145    0.43238    1.000
    N30      N        0.02065    0.03037    0.44278    1.000
    N31      N        0.08271    0.05129    0.42327    1.000
    Si32     Si       0.03969    0.02333    0.48400    1.000
    Si33     Si       0.13486    0.01352    0.37362    1.000
    Si34     Si       0.15889    0.03545    0.44676    1.000
    N35      N        0.14615    0.04222    0.40405    1.000
    N36      N        0.22497    0.05250    0.40979    1.000
    N37      N        0.19499    0.03227    0.47000    1.000
    Si38     Si       0.23040    0.05447    0.45350    1.000
    N39      N        0.02314    0.03297    0.57255    1.000
    N40      N        0.09175    0.03632    0.58425    1.000
    N41      N        0.07834    0.02346    0.52333    1.000
    Si42     Si       0.10849    0.05034    0.54258    1.000
    N43      N        0.03363    0.06325    0.49898    1.000
    Si44     Si       0.06010    0.01273    0.56306    1.000
    Si45     Si       0.98924    0.00797    0.58153    1.000
    N46      N        0.21322    0.05780    0.59615    1.000
    N47      N        0.20736    0.01935    0.53814    1.000
    N48      N        0.13936    0.03198    0.51855    1.000
    Si49     Si       0.18120    0.03986    0.51123    1.000
    Si50     Si       0.23618    0.04343    0.56219    1.000
    N51      N        0.15240    0.03290    0.61856    1.000
    Si52     Si       0.19359    0.02732    0.62253    1.000
    Si53     Si       0.08339    0.02938    0.66609    1.000
    N54      N        0.06699    0.04113    0.70582    1.000
    N55      N        0.05712    0.05802    0.64432    1.000
    Si56     Si       0.11114    0.04281    0.71749    1.000
    Si57     Si       0.04614    0.02882    0.74130    1.000
    N58      N        0.13998    0.06370    0.74092    1.000
    N59      N        0.20766    0.02858    0.66515    1.000
    N60      N        0.12056    0.05008    0.67530    1.000
    Si61     Si       0.13930    0.06902    0.64073    1.000
    Si62     Si       0.07762    0.04137    0.81217    1.000
    N63      N        0.06485    0.05333    0.77149    1.000
    Si64     Si       0.99785    0.05752    0.78927    1.000
    N65      N        0.00372    0.03494    0.74936    1.000
    N66      N        0.12158    0.03684    0.80662    1.000
    Si67     Si       0.13219    0.03530    0.84805    1.000
    N68      N        0.21534    0.04496    0.82783    1.000
    Si69     Si       0.21269    0.04801    0.78472    1.000
    Si70     Si       0.14141    0.02992    0.76812    1.000
    N71      N        0.18143    0.01763    0.77725    1.000
    N72      N        0.09580    0.02772    0.87396    1.000
    Si73     Si       0.03181    0.05428    0.97058    1.000
    Si74     Si       0.08213    0.05453    0.90471    1.000
    N75      N        0.05589    0.03614    0.93614    1.000
    N76      N        0.99238    0.03596    0.97666    1.000
    N77      N        0.18699    0.06540    0.90305    1.000
    Si78     Si       0.13114    0.05561    0.96220    1.000
    N79      N        0.23662    0.03398    0.94446    1.000
    Si80     Si       0.19294    0.04023    0.93710    1.000
    N81      N        0.17448    0.06046    0.97117    1.000
    N82      N        0.12415    0.01276    0.97052    1.000
    N83      N        0.03703    0.10458    0.04122    1.000
    N84      N        0.00241    0.09029    0.10290    1.000
    N85      N        0.07134    0.10165    0.10642    1.000
    N86      N        0.10523    0.09459    0.05135    1.000
    Si87     Si       0.00276    0.08210    0.05890    1.000
    Si88     Si       0.07030    0.11798    0.06352    1.000
    Si89     Si       0.03354    0.12079    0.00022    1.000
    Si90     Si       0.04089    0.07179    0.11262    1.000
    Si91     Si       0.11413    0.09188    0.11290    1.000
    N92      N        0.18336    0.10257    0.03624    1.000
    Si93     Si       0.14443    0.11318    0.05369    1.000
    N94      N        0.18987    0.07175    0.11762    1.000
    Si95     Si       0.22926    0.07205    0.10237    1.000
    N96      N        0.14549    0.11984    0.09785    1.000
    N97      N        0.10670    0.08679    0.15747    1.000
    N98      N        0.07327    0.09575    0.21655    1.000
    N99      N        0.00082    0.10573    0.22394    1.000
    Si100    Si       0.06691    0.08713    0.17190    1.000
    Si101    Si       0.00419    0.12403    0.18472    1.000
    N102     N        0.22807    0.09626    0.20157    1.000
    N103     N        0.17113    0.07375    0.17476    1.000
    Si104    Si       0.13483    0.08689    0.19315    1.000
    Si105    Si       0.20894    0.09369    0.16019    1.000
    N106     N        0.05778    0.08782    0.33240    1.000
    Si107    Si       0.09326    0.10697    0.31287    1.000
    Si108    Si       0.03589    0.10905    0.36219    1.000
    N109     N        0.99555    0.11752    0.34971    1.000
    Si110    Si       0.19255    0.10689    0.27781    1.000
    N111     N        0.12906    0.08370    0.32526    1.000
    Si112    Si       0.15819    0.10497    0.34866    1.000
    N113     N        0.19620    0.08736    0.35887    1.000
    Si114    Si       0.22397    0.11585    0.33613    1.000
    N115     N        0.18550    0.06987    0.25354    1.000
    N116     N        0.23281    0.10421    0.29362    1.000
    N117     N        0.17877    0.12868    0.31709    1.000
    N118     N        0.04256    0.10279    0.44993    1.000
    N119     N        0.02133    0.07969    0.39094    1.000
    Si120    Si       0.03725    0.10620    0.49210    1.000
    Si121    Si       0.04039    0.06526    0.42705    1.000
    Si122    Si       0.12057    0.07526    0.41566    1.000
    N123     N        0.14191    0.07561    0.45519    1.000
    N124     N        0.13235    0.10972    0.38993    1.000
    Si125    Si       0.16451    0.10641    0.47473    1.000
    N126     N        0.22922    0.09373    0.47060    1.000
    N127     N        0.05071    0.09673    0.57797    1.000
    Si128    Si       0.07916    0.12022    0.55394    1.000
    Si129    Si       0.01185    0.07595    0.57609    1.000
    N130     N        0.06769    0.12653    0.51244    1.000
    N131     N        0.99077    0.08488    0.61365    1.000
    Si132    Si       0.07449    0.07075    0.60679    1.000
    N133     N        0.11369    0.09390    0.54857    1.000
    N134     N        0.17803    0.11356    0.57437    1.000
    Si135    Si       0.19857    0.09728    0.60886    1.000
    Si136    Si       0.22001    0.10083    0.51377    1.000
    N137     N        0.17975    0.08496    0.50986    1.000
    Si138    Si       0.15260    0.10942    0.53776    1.000
    N139     N        0.10883    0.09534    0.62538    1.000
    N140     N        0.07276    0.11074    0.68923    1.000
    Si141    Si       0.04429    0.07667    0.68174    1.000
    N142     N        0.00044    0.07290    0.68290    1.000
    Si143    Si       0.09695    0.12387    0.65718    1.000
    Si144    Si       0.17314    0.09203    0.74120    1.000
    N145     N        0.17770    0.08576    0.64363    1.000
    N146     N        0.20731    0.08208    0.71638    1.000
    Si147    Si       0.20786    0.07060    0.67370    1.000
    Si148    Si       0.03771    0.09617    0.84981    1.000
    N149     N        0.07403    0.08352    0.82717    1.000
    Si150    Si       0.08017    0.09373    0.78079    1.000
    N151     N        0.99822    0.09865    0.77521    1.000
    N152     N        0.00881    0.06704    0.83202    1.000
    Si153    Si       0.11173    0.10562    0.83720    1.000
    N154     N        0.05965    0.12400    0.75975    1.000
    N155     N        0.11789    0.11121    0.79469    1.000
    N156     N        0.13942    0.07830    0.85670    1.000
    N157     N        0.21185    0.10644    0.85107    1.000
    N158     N        0.19261    0.08610    0.77972    1.000
    Si159    Si       0.20180    0.11489    0.81070    1.000
    Si160    Si       0.21153    0.06647    0.86735    1.000
    N161     N        0.03927    0.09659    0.96256    1.000
    Si162    Si       0.03911    0.12220    0.91797    1.000
    N163     N        0.05594    0.08622    0.88948    1.000
    N164     N        0.10893    0.08321    0.98577    1.000
    Si165    Si       0.08318    0.11116    0.96477    1.000
    N166     N        0.01121    0.12355    0.88218    1.000
    Si167    Si       0.15061    0.08775    0.89820    1.000
    N168     N        0.23734    0.08730    0.98903    1.000
    Si169    Si       0.19240    0.09129    0.99357    1.000
    N170     N        0.12039    0.06897    0.92289    1.000
    N171     N        0.06505    0.15869    0.07693    1.000
    Si172    Si       0.10198    0.16590    0.00905    1.000
    N173     N        0.00788    0.15886    0.11625    1.000
    N174     N        0.99944    0.14663    0.00032    1.000
    N175     N        0.07304    0.13809    0.99665    1.000
    Si176    Si       0.05206    0.15011    0.12116    1.000
    N177     N        0.13777    0.15102    0.03203    1.000
    N178     N        0.20103    0.16168    0.07921    1.000
    Si179    Si       0.17702    0.14668    0.11452    1.000
    Si180    Si       0.23267    0.18133    0.00510    1.000
    Si181    Si       0.21474    0.12690    0.05576    1.000
    Si182    Si       0.04659    0.17726    0.18646    1.000
    N183     N        0.00762    0.16562    0.19442    1.000
    N184     N        0.07595    0.16795    0.21791    1.000
    N185     N        0.06551    0.18111    0.14854    1.000
    Si186    Si       0.09411    0.13167    0.23218    1.000
    N187     N        0.04118    0.12054    0.16106    1.000
    N188     N        0.13360    0.12538    0.21359    1.000
    N189     N        0.17582    0.18019    0.19719    1.000
    Si190    Si       0.21291    0.16917    0.17732    1.000
    N191     N        0.20447    0.13576    0.14852    1.000
    Si192    Si       0.15877    0.15927    0.23103    1.000
    N193     N        0.16180    0.18548    0.12955    1.000
    N194     N        0.09481    0.14803    0.33177    1.000
    Si195    Si       0.07792    0.16777    0.36634    1.000
    Si196    Si       0.11004    0.16910    0.29251    1.000
    N197     N        0.09871    0.12916    0.27568    1.000
    Si198    Si       0.17915    0.16799    0.29806    1.000
    N199     N        0.18570    0.14586    0.26089    1.000
    N200     N        0.14588    0.18597    0.31776    1.000
    N201     N        0.23777    0.15535    0.34719    1.000
    Si202    Si       0.14648    0.18684    0.36014    1.000
    N203     N        0.12932    0.18219    0.25314    1.000
    Si204    Si       0.05731    0.13948    0.43106    1.000
    N205     N        0.05300    0.14013    0.38741    1.000
    N206     N        0.03348    0.17113    0.44969    1.000
    N207     N        0.10050    0.14014    0.44396    1.000
    Si208    Si       0.10147    0.14325    0.48603    1.000
    Si209    Si       0.99275    0.15602    0.46444    1.000
    N210     N        0.11498    0.17689    0.38724    1.000
    Si211    Si       0.19742    0.15781    0.41946    1.000
    Si212    Si       0.13287    0.14587    0.41462    1.000
    N213     N        0.23561    0.13678    0.41538    1.000
    N214     N        0.17551    0.16163    0.38199    1.000
    N215     N        0.16788    0.13720    0.44362    1.000
    N216     N        0.07783    0.16231    0.56932    1.000
    Si217    Si       0.08757    0.17836    0.60878    1.000
    N218     N        0.09679    0.18444    0.50399    1.000
    N219     N        0.00160    0.12920    0.49729    1.000
    N220     N        0.13017    0.16793    0.60960    1.000
    Si221    Si       0.20803    0.14696    0.56979    1.000
    N222     N        0.22193    0.14107    0.52628    1.000
    N223     N        0.22356    0.13364    0.60868    1.000
    N224     N        0.14031    0.13171    0.50300    1.000
    Si225    Si       0.99488    0.16994    0.72988    1.000
    N226     N        0.00391    0.15466    0.64187    1.000
    N227     N        0.02971    0.15828    0.70574    1.000
    N228     N        0.07036    0.15868    0.64429    1.000
    Si229    Si       0.06528    0.14154    0.71996    1.000
    N230     N        0.09666    0.16991    0.72699    1.000
    Si231    Si       0.03295    0.17315    0.66281    1.000
    Si232    Si       0.13610    0.16157    0.71221    1.000
    Si233    Si       0.15838    0.16309    0.64728    1.000
    N234     N        0.15405    0.13321    0.73996    1.000
    N235     N        0.13218    0.14262    0.67389    1.000
    N236     N        0.22885    0.17404    0.73524    1.000
    N237     N        0.19846    0.15720    0.66751    1.000
    Si238    Si       0.23539    0.13644    0.65121    1.000
    Si239    Si       0.01769    0.16013    0.85910    1.000
    N240     N        0.00367    0.16749    0.77086    1.000
    N241     N        0.03233    0.13586    0.82640    1.000
    N242     N        0.10982    0.14503    0.85527    1.000
    Si243    Si       0.02486    0.13141    0.78420    1.000
    N244     N        0.23796    0.14000    0.79728    1.000
    Si245    Si       0.11391    0.18321    0.83293    1.000
    N246     N        0.11815    0.18131    0.79040    1.000
    N247     N        0.21637    0.17499    0.85680    1.000
    N248     N        0.17269    0.14634    0.80971    1.000
    Si249    Si       0.14047    0.14504    0.78085    1.000
    Si250    Si       0.18396    0.18215    0.82826    1.000
    Si251    Si       0.23108    0.18120    0.77966    1.000
    Si252    Si       0.23684    0.13772    0.86951    1.000
    N253     N        0.01702    0.15762    0.93740    1.000
    N254     N        0.08073    0.13266    0.92671    1.000
    Si255    Si       0.11349    0.14920    0.89958    1.000
    N256     N        0.15084    0.13054    0.90802    1.000
    N257     N        0.18032    0.12848    0.97255    1.000
    N258     N        0.12570    0.17601    0.97449    1.000
    Si259    Si       0.18732    0.14438    0.93024    1.000
    N260     N        0.22912    0.13576    0.91235    1.000
    Si261    Si       0.16279    0.15868    0.99686    1.000
    N262     N        0.07748    0.19804    0.01976    1.000
    N263     N        0.07074    0.23001    0.07273    1.000
    Si264    Si       0.05323    0.19478    0.05453    1.000
    N265     N        0.00877    0.19469    0.05748    1.000
    Si266    Si       0.99358    0.19719    0.09908    1.000
    Si267    Si       0.07634    0.23823    0.00429    1.000
    N268     N        0.01240    0.23196    0.11846    1.000
    Si269    Si       0.22577    0.19578    0.07095    1.000
    Si270    Si       0.16630    0.22134    0.10336    1.000
    N271     N        0.20912    0.23177    0.09597    1.000
    N272     N        0.14419    0.22578    0.06815    1.000
    N273     N        0.04666    0.22290    0.19212    1.000
    Si274    Si       0.07977    0.22047    0.16268    1.000
    Si275    Si       0.10141    0.20371    0.22561    1.000
    N276     N        0.22217    0.21108    0.16365    1.000
    N277     N        0.11581    0.21030    0.18402    1.000
    Si278    Si       0.21525    0.23427    0.20080    1.000
    N279     N        0.23117    0.21321    0.23611    1.000
    Si280    Si       0.15698    0.20998    0.16938    1.000
    N281     N        0.17435    0.24707    0.19248    1.000
    N282     N        0.07689    0.20038    0.28977    1.000
    N283     N        0.05929    0.20636    0.35827    1.000
    Si284    Si       0.04448    0.21602    0.31741    1.000
    N285     N        0.00733    0.19965    0.30665    1.000
    Si286    Si       0.09283    0.24067    0.28051    1.000
    N287     N        0.21052    0.19912    0.30453    1.000
    Si288    Si       0.22070    0.22982    0.27597    1.000
    Si289    Si       0.23550    0.19874    0.34275    1.000
    N290     N        0.21677    0.22626    0.37004    1.000
    N291     N        0.08200    0.22388    0.41995    1.000
    Si292    Si       0.04507    0.21373    0.44224    1.000
    N293     N        0.04194    0.23201    0.48089    1.000
    N294     N        0.02102    0.23625    0.41296    1.000
    Si295    Si       0.05849    0.23875    0.38720    1.000
    Si296    Si       0.17981    0.21589    0.46174    1.000
    N297     N        0.15060    0.23028    0.37938    1.000
    N298     N        0.14181    0.20225    0.44524    1.000
    Si299    Si       0.12274    0.21587    0.41010    1.000
    Si300    Si       0.12813    0.20721    0.48669    1.000
    N301     N        0.20842    0.19583    0.43396    1.000
    Si302    Si       0.23487    0.22053    0.40935    1.000
    N303     N        0.01673    0.21660    0.59179    1.000
    N304     N        0.07170    0.23154    0.54554    1.000
    N305     N        0.07668    0.22023    0.61121    1.000
    N306     N        0.02423    0.19178    0.53226    1.000
    Si307    Si       0.02893    0.23814    0.55567    1.000
    Si308    Si       0.00739    0.21461    0.49948    1.000
    Si309    Si       0.99664    0.18788    0.56605    1.000
    Si310    Si       0.06752    0.18873    0.53546    1.000
    Si311    Si       0.09553    0.24440    0.57878    1.000
    N312     N        0.23521    0.20993    0.50642    1.000
    Si313    Si       0.19776    0.21131    0.53456    1.000
    Si314    Si       0.15715    0.19966    0.59477    1.000
    N315     N        0.13679    0.23252    0.57484    1.000
    N316     N        0.16819    0.20697    0.50353    1.000
    N317     N        0.18861    0.18453    0.56818    1.000
    Si318    Si       0.03742    0.23589    0.62599    1.000
    N319     N        0.02707    0.21546    0.66275    1.000
    Si320    Si       0.99568    0.23899    0.68557    1.000
    N321     N        0.22026    0.22238    0.68353    1.000
    Si322    Si       0.18773    0.23620    0.65553    1.000
    N323     N        0.16854    0.20486    0.63568    1.000
    Si324    Si       0.15687    0.23679    0.71938    1.000
    N325     N        0.11660    0.23651    0.73660    1.000
    N326     N        0.16323    0.19451    0.71317    1.000
    Si327    Si       0.20548    0.18669    0.70148    1.000
    N328     N        0.08165    0.21206    0.84182    1.000
    N329     N        0.07019    0.22721    0.77573    1.000
    N330     N        0.00897    0.22322    0.81343    1.000
    Si331    Si       0.05237    0.23197    0.81573    1.000
    Si332    Si       0.09911    0.20109    0.75580    1.000
    N333     N        0.15099    0.20207    0.84500    1.000
    N334     N        0.19952    0.20416    0.79374    1.000
    Si335    Si       0.16177    0.24160    0.85647    1.000
    N336     N        0.08632    0.23295    0.96443    1.000
    Si337    Si       0.07539    0.20788    0.88339    1.000
    N338     N        0.02085    0.22723    0.94590    1.000
    Si339    Si       0.01148    0.19623    0.91825    1.000
    N340     N        0.10611    0.19077    0.90920    1.000
    Si341    Si       0.00363    0.24014    0.98506    1.000
    N342     N        0.03691    0.18646    0.88525    1.000
    N343     N        0.19362    0.18726    0.92850    1.000
    N344     N        0.15241    0.23560    0.94875    1.000
    Si345    Si       0.11686    0.20761    0.94678    1.000
    Si346    Si       0.18974    0.21580    0.95988    1.000
    N347     N        0.19915    0.24053    0.88022    1.000
    Si348    Si       0.21432    0.20144    0.89274    1.000
    N349     N        0.18922    0.19083    0.99712    1.000
    N350     N        0.09973    0.27062    0.02465    1.000
    N351     N        0.03589    0.28648    0.08268    1.000
    Si352    Si       0.03455    0.29045    0.03812    1.000
    N353     N        0.03654    0.25490    0.01159    1.000
    Si354    Si       0.04855    0.25163    0.10357    1.000
    Si355    Si       0.10887    0.25111    0.06273    1.000
    N356     N        0.11453    0.28354    0.08992    1.000
    N357     N        0.21704    0.28174    0.03662    1.000
    Si358    Si       0.20891    0.27245    0.07714    1.000
    N359     N        0.18129    0.30265    0.09370    1.000
    N360     N        0.01556    0.27980    0.17407    1.000
    Si361    Si       0.08059    0.28402    0.22711    1.000
    Si362    Si       0.02092    0.25330    0.20824    1.000
    N363     N        0.07636    0.25368    0.13634    1.000
    N364     N        0.04008    0.27544    0.24057    1.000
    N365     N        0.09632    0.24442    0.23765    1.000
    Si366    Si       0.11357    0.26980    0.13097    1.000
    N367     N        0.23095    0.27598    0.21367    1.000
    N368     N        0.12537    0.29830    0.16028    1.000
    Si369    Si       0.16594    0.27898    0.16610    1.000
    N370     N        0.15150    0.24684    0.13436    1.000
    N371     N        0.20087    0.30520    0.15978    1.000
    N372     N        0.05953    0.26008    0.30649    1.000
    Si373    Si       0.02912    0.28421    0.28174    1.000
    Si374    Si       0.09289    0.28095    0.33170    1.000
    N375     N        0.07704    0.27562    0.37216    1.000
    N376     N        0.12163    0.26152    0.30319    1.000
    N377     N        0.19265    0.26303    0.26809    1.000
    Si378    Si       0.16228    0.27863    0.29969    1.000
    N379     N        0.18732    0.27846    0.33539    1.000
    Si380    Si       0.21407    0.29669    0.24818    1.000
    Si381    Si       0.18499    0.25579    0.37281    1.000
    Si382    Si       0.99244    0.26645    0.42128    1.000
    N383     N        0.11394    0.24760    0.48792    1.000
    Si384    Si       0.20234    0.28207    0.44200    1.000
    N385     N        0.17559    0.25890    0.46652    1.000
    N386     N        0.18379    0.28755    0.40352    1.000
    Si387    Si       0.14402    0.27955    0.48870    1.000
    N388     N        0.23492    0.25198    0.43943    1.000
    N389     N        0.09407    0.28655    0.58741    1.000
    N390     N        0.02776    0.27681    0.57341    1.000
    N391     N        0.06856    0.29022    0.52032    1.000
    Si392    Si       0.99597    0.28536    0.60097    1.000
    Si393    Si       0.06216    0.29983    0.56304    1.000
    N394     N        0.99680    0.24941    0.52500    1.000
    Si395    Si       0.07487    0.25010    0.50462    1.000
    Si396    Si       0.98936    0.28815    0.50308    1.000
    N397     N        0.15964    0.29628    0.59848    1.000
    Si398    Si       0.15999    0.26838    0.56471    1.000
    Si399    Si       0.22626    0.26252    0.58661    1.000
    N400     N        0.14563    0.29165    0.53215    1.000
    N401     N        0.19822    0.24985    0.55540    1.000
    N402     N        0.00264    0.27972    0.69934    1.000
    N403     N        0.01842    0.27513    0.63621    1.000
    N404     N        0.06634    0.28523    0.73373    1.000
    N405     N        0.16039    0.25730    0.68004    1.000
    Si406    Si       0.15143    0.29859    0.67306    1.000
    N407     N        0.18062    0.25900    0.74745    1.000
    N408     N        0.22012    0.25514    0.62943    1.000
    Si409    Si       0.18497    0.30275    0.74222    1.000
    N410     N        0.04111    0.27551    0.81406    1.000
    Si411    Si       0.99964    0.26713    0.80564    1.000
    Si412    Si       0.09233    0.26340    0.75959    1.000
    N413     N        0.10798    0.28983    0.79118    1.000
    Si414    Si       0.07379    0.30359    0.81755    1.000
    N415     N        0.16391    0.26218    0.81775    1.000
    N416     N        0.22964    0.26503    0.79283    1.000
    Si417    Si       0.19105    0.24531    0.78745    1.000
    Si418    Si       0.14848    0.30118    0.80459    1.000
    Si419    Si       0.22837    0.26804    0.87038    1.000
    N420     N        0.04346    0.28879    0.94901    1.000
    Si421    Si       0.09871    0.27736    0.88844    1.000
    N422     N        0.10673    0.29476    0.92900    1.000
    Si423    Si       0.05609    0.24996    0.93854    1.000
    Si424    Si       0.00143    0.29770    0.94757    1.000
    N425     N        0.06841    0.24913    0.89748    1.000
    Si426    Si       0.22498    0.28140    0.94516    1.000
    Si427    Si       0.14815    0.27343    0.92718    1.000
    N428     N        0.21983    0.24717    0.97303    1.000
    N429     N        0.13852    0.26352    0.88467    1.000
    N430     N        0.18314    0.29666    0.93690    1.000
    N431     N        0.05914    0.32744    0.03226    1.000
    Si432    Si       0.10153    0.31363    0.02595    1.000
    N433     N        0.00304    0.34934    0.09802    1.000
    Si434    Si       0.99830    0.30830    0.08717    1.000
    Si435    Si       0.22779    0.31993    0.02006    1.000
    N436     N        0.13221    0.33285    0.05039    1.000
    Si437    Si       0.14073    0.32020    0.09013    1.000
    N438     N        0.20271    0.35556    0.02667    1.000
    N439     N        0.12323    0.34858    0.11870    1.000
    Si440    Si       0.21435    0.31526    0.12155    1.000
    Si441    Si       0.16336    0.36287    0.04591    1.000
    Si442    Si       0.03677    0.31832    0.17404    1.000
    N443     N        0.07038    0.31722    0.20019    1.000
    Si444    Si       0.09526    0.34873    0.22469    1.000
    N445     N        0.00923    0.35082    0.18815    1.000
    N446     N        0.05979    0.33924    0.14106    1.000
    Si447    Si       0.10234    0.33650    0.15632    1.000
    N448     N        0.11117    0.31328    0.24525    1.000
    N449     N        0.18800    0.32799    0.23455    1.000
    N450     N        0.22916    0.35482    0.12633    1.000
    Si451    Si       0.23518    0.30917    0.18652    1.000
    N452     N        0.02703    0.32919    0.28560    1.000
    N453     N        0.10614    0.32180    0.33869    1.000
    N454     N        0.00537    0.34956    0.34816    1.000
    Si455    Si       0.99389    0.34897    0.30698    1.000
    N456     N        0.22147    0.35359    0.32425    1.000
    N457     N        0.15896    0.32199    0.29498    1.000
    N458     N        0.16970    0.33733    0.35876    1.000
    Si459    Si       0.14036    0.34503    0.32502    1.000
    Si460    Si       0.20609    0.31839    0.34248    1.000
    Si461    Si       0.14908    0.33358    0.25425    1.000
    Si462    Si       0.09160    0.31779    0.37850    1.000
    Si463    Si       0.03719    0.33396    0.42152    1.000
    N464     N        0.06562    0.32827    0.45539    1.000
    N465     N        0.05946    0.34609    0.38619    1.000
    Si466    Si       0.10842    0.34103    0.44878    1.000
    N467     N        0.01026    0.30289    0.40616    1.000
    Si468    Si       0.05917    0.32565    0.49696    1.000
    N469     N        0.21219    0.31705    0.46694    1.000
    Si470    Si       0.21021    0.35555    0.44939    1.000
    N471     N        0.12143    0.32551    0.41042    1.000
    N472     N        0.13543    0.32099    0.47740    1.000
    Si473    Si       0.16283    0.32443    0.39897    1.000
    N474     N        0.17680    0.36109    0.42170    1.000
    N475     N        0.04984    0.34052    0.56766    1.000
    Si476    Si       0.01100    0.34991    0.57942    1.000
    N477     N        0.09242    0.35193    0.51937    1.000
    N478     N        0.01464    0.32261    0.50022    1.000
    N479     N        0.11721    0.35183    0.58459    1.000
    Si480    Si       0.12059    0.31514    0.60571    1.000
    Si481    Si       0.13362    0.33429    0.51870    1.000
    N482     N        0.22829    0.34005    0.53078    1.000
    Si483    Si       0.19166    0.31899    0.61647    1.000
    N484     N        0.22134    0.30405    0.59045    1.000
    N485     N        0.18615    0.36115    0.60882    1.000
    Si486    Si       0.24237    0.31401    0.49786    1.000
    N487     N        0.05265    0.32596    0.67792    1.000
    Si488    Si       0.05252    0.32312    0.72137    1.000
    Si489    Si       0.08929    0.34528    0.66290    1.000
    N490     N        0.01276    0.32982    0.74274    1.000
    Si491    Si       0.01488    0.30676    0.66751    1.000
    N492     N        0.07757    0.35331    0.74085    1.000
    N493     N        0.22433    0.31700    0.72863    1.000
    N494     N        0.18964    0.31366    0.65953    1.000
    N495     N        0.15434    0.31969    0.71776    1.000
    N496     N        0.11855    0.31438    0.64910    1.000
    Si497    Si       0.21494    0.33426    0.68808    1.000
    N498     N        0.06334    0.34430    0.81191    1.000
    N499     N        0.01902    0.33154    0.86212    1.000
    Si500    Si       0.04720    0.36033    0.84886    1.000
    N501     N        0.09148    0.30500    0.85672    1.000
    Si502    Si       0.11459    0.34254    0.85772    1.000
    N503     N        0.14252    0.33876    0.82380    1.000
    N504     N        0.18470    0.31364    0.78522    1.000
    Si505    Si       0.21969    0.30611    0.80921    1.000
    N506     N        0.21896    0.30510    0.85172    1.000
    Si507    Si       0.22391    0.34137    0.87390    1.000
    N508     N        0.10509    0.33324    0.98712    1.000
    Si509    Si       0.07925    0.31405    0.95601    1.000
    N510     N        0.06084    0.35229    0.94844    1.000
    N511     N        0.99419    0.33967    0.94831    1.000
    N512     N        0.21194    0.35339    0.91506    1.000
    N513     N        0.14486    0.34831    0.88765    1.000
    Si514    Si       0.19668    0.33454    0.95206    1.000
    N515     N        0.23018    0.31491    0.97589    1.000
    N516     N        0.05643    0.38479    0.07587    1.000
    N517     N        0.00701    0.37519    0.01915    1.000
    Si518    Si       0.04798    0.36855    0.03402    1.000
    N519     N        0.06551    0.39611    0.00348    1.000
    Si520    Si       0.04040    0.36746    0.11330    1.000
    Si521    Si       0.00614    0.41787    0.00166    1.000
    N522     N        0.11707    0.41968    0.09209    1.000
    Si523    Si       0.23124    0.38837    0.02858    1.000
    Si524    Si       0.21221    0.38687    0.10185    1.000
    N525     N        0.14591    0.39825    0.02495    1.000
    N526     N        0.17239    0.37673    0.08712    1.000
    Si527    Si       0.13939    0.38759    0.11411    1.000
    N528     N        0.02974    0.40045    0.14096    1.000
    Si529    Si       0.00857    0.39270    0.17749    1.000
    N530     N        0.11309    0.36465    0.18776    1.000
    N531     N        0.18514    0.39626    0.20229    1.000
    N532     N        0.13963    0.41209    0.15197    1.000
    Si533    Si       0.14243    0.39693    0.19351    1.000
    Si534    Si       0.20756    0.36589    0.22376    1.000
    N535     N        0.06068    0.38386    0.32195    1.000
    N536     N        0.00482    0.38836    0.28928    1.000
    Si537    Si       0.03889    0.37308    0.35893    1.000
    Si538    Si       0.09230    0.41186    0.32220    1.000
    Si539    Si       0.04559    0.37163    0.28217    1.000
    Si540    Si       0.10618    0.40617    0.25277    1.000
    N541     N        0.07081    0.37691    0.24866    1.000
    N542     N        0.13201    0.39010    0.32166    1.000
    Si543    Si       0.22143    0.39307    0.34000    1.000
    N544     N        0.22670    0.38371    0.25846    1.000
    N545     N        0.18805    0.40036    0.36474    1.000
    Si546    Si       0.16377    0.41678    0.33164    1.000
    N547     N        0.13297    0.37264    0.24532    1.000
    N548     N        0.20096    0.42174    0.31165    1.000
    N549     N        0.01068    0.36650    0.42893    1.000
    Si550    Si       0.00940    0.40782    0.42145    1.000
    N551     N        0.02675    0.40888    0.38095    1.000
    N552     N        0.10327    0.38450    0.45943    1.000
    Si553    Si       0.08429    0.38783    0.49690    1.000
    N554     N        0.03819    0.38763    0.50064    1.000
    Si555    Si       0.16994    0.40178    0.40371    1.000
    N556     N        0.20545    0.38539    0.47987    1.000
    N557     N        0.06683    0.40459    0.57523    1.000
    Si558    Si       0.05249    0.40211    0.61534    1.000
    N559     N        0.01521    0.38239    0.60802    1.000
    Si560    Si       0.08221    0.36769    0.56148    1.000
    Si561    Si       0.00089    0.36241    0.50396    1.000
    N562     N        0.16424    0.36333    0.53515    1.000
    N563     N        0.21835    0.41022    0.54309    1.000
    Si564    Si       0.20430    0.37505    0.52131    1.000
    Si565    Si       0.15532    0.37442    0.57798    1.000
    N566     N        0.15953    0.41545    0.59258    1.000
    Si567    Si       0.19305    0.40536    0.62309    1.000
    N568     N        0.98818    0.39962    0.72003    1.000
    N569     N        0.08060    0.38221    0.64035    1.000
    Si570    Si       0.09803    0.39194    0.73295    1.000
    Si571    Si       0.10526    0.40528    0.66646    1.000
    Si572    Si       0.99331    0.36894    0.75027    1.000
    Si573    Si       0.20657    0.41120    0.68943    1.000
    Si574    Si       0.15521    0.36141    0.71203    1.000
    N575     N        0.12052    0.36956    0.68583    1.000
    N576     N        0.14118    0.39314    0.73996    1.000
    N577     N        0.19358    0.37031    0.69503    1.000
    N578     N        0.23072    0.40003    0.64500    1.000
    N579     N        0.01993    0.38547    0.78036    1.000
    N580     N        0.08449    0.40626    0.77339    1.000
    N581     N        0.03288    0.40008    0.84426    1.000
    Si582    Si       0.06096    0.37034    0.77773    1.000
    Si583    Si       0.01497    0.41746    0.80786    1.000
    N584     N        0.19055    0.39020    0.78353    1.000
    N585     N        0.14394    0.40160    0.83839    1.000
    N586     N        0.20016    0.37129    0.84971    1.000
    Si587    Si       0.17041    0.37088    0.81667    1.000
    Si588    Si       0.23728    0.39733    0.84936    1.000
    Si589    Si       0.16371    0.38473    0.87344    1.000
    N590     N        0.08397    0.36950    0.87147    1.000
    Si591    Si       0.02014    0.37265    0.94243    1.000
    N592     N        0.10673    0.39582    0.94220    1.000
    N593     N        0.03832    0.39637    0.90940    1.000
    Si594    Si       0.07902    0.37832    0.91395    1.000
    Si595    Si       0.09011    0.37179    0.97715    1.000
    N596     N        0.99671    0.40831    0.96001    1.000
    Si597    Si       0.20389    0.39398    0.93003    1.000
    Si598    Si       0.17137    0.40614    0.99131    1.000
    N599     N        0.17533    0.41238    0.90285    1.000
    N600     N        0.18380    0.37494    0.96451    1.000
    N601     N        0.05320    0.45256    0.09780    1.000
    N602     N        0.02930    0.45219    0.01175    1.000
    N603     N        0.09242    0.44029    0.04010    1.000
    Si604    Si       0.06991    0.43872    0.00369    1.000
    N605     N        0.99451    0.47149    0.07194    1.000
    Si606    Si       0.07665    0.42202    0.07773    1.000
    N607     N        0.16168    0.46171    0.05486    1.000
    Si608    Si       0.20020    0.46301    0.03152    1.000
    Si609    Si       0.22831    0.46460    0.10382    1.000
    Si610    Si       0.13318    0.43017    0.05155    1.000
    N611     N        0.20977    0.42644    0.11510    1.000
    N612     N        0.23159    0.47401    0.06039    1.000
    N613     N        0.20966    0.42387    0.00960    1.000
    N614     N        0.14184    0.47748    0.12195    1.000
    Si615    Si       0.03990    0.44265    0.13990    1.000
    N616     N        0.00221    0.46705    0.14432    1.000
    N617     N        0.08192    0.44806    0.15739    1.000
    Si618    Si       0.03059    0.45751    0.22782    1.000
    Si619    Si       0.09907    0.45683    0.19711    1.000
    N620     N        0.07473    0.46635    0.23094    1.000
    N621     N        0.02299    0.42269    0.20361    1.000
    Si622    Si       0.11647    0.44396    0.13355    1.000
    Si623    Si       0.20359    0.43578    0.20629    1.000
    N624     N        0.17897    0.46805    0.18994    1.000
    N625     N        0.12739    0.43049    0.21926    1.000
    Si626    Si       0.15470    0.46814    0.22799    1.000
    N627     N        0.19367    0.45254    0.24771    1.000
    N628     N        0.01968    0.45603    0.26945    1.000
    N629     N        0.08603    0.43935    0.35484    1.000
    N630     N        0.09703    0.43274    0.28428    1.000
    N631     N        0.01771    0.46561    0.33539    1.000
    Si632    Si       0.04404    0.44606    0.36634    1.000
    Si633    Si       0.09485    0.47577    0.26688    1.000
    Si634    Si       0.21519    0.45514    0.28506    1.000
    N635     N        0.14932    0.45586    0.34578    1.000
    Si636    Si       0.05815    0.46822    0.43817    1.000
    N637     N        0.09598    0.45672    0.45694    1.000
    N638     N        0.02875    0.43627    0.45165    1.000
    Si639    Si       0.02491    0.42759    0.49466    1.000
    N640     N        0.04320    0.47495    0.39808    1.000
    N641     N        0.15169    0.43251    0.47643    1.000
    Si642    Si       0.20527    0.47044    0.40642    1.000
    N643     N        0.13173    0.42150    0.40590    1.000
    N644     N        0.21196    0.45586    0.49272    1.000
    Si645    Si       0.19377    0.42571    0.46810    1.000
    Si646    Si       0.12075    0.45213    0.37819    1.000
    Si647    Si       0.12150    0.42327    0.44795    1.000
    N648     N        0.19404    0.43293    0.42541    1.000
    N649     N        0.04012    0.45384    0.52797    1.000
    N650     N        0.10148    0.45841    0.57869    1.000
    Si651    Si       0.07450    0.43822    0.54927    1.000
    Si652    Si       0.08611    0.46478    0.61992    1.000
    N653     N        0.10233    0.41943    0.52020    1.000
    Si654    Si       0.20571    0.45116    0.53593    1.000
    N655     N        0.16509    0.46295    0.54123    1.000
    Si656    Si       0.14461    0.45312    0.58218    1.000
    Si657    Si       0.13245    0.44850    0.51104    1.000
    N658     N        0.04768    0.44171    0.63503    1.000
    N659     N        0.01834    0.46308    0.68759    1.000
    Si660    Si       0.00470    0.44792    0.64883    1.000
    Si661    Si       0.06011    0.45003    0.68166    1.000
    N662     N        0.11340    0.44683    0.64971    1.000
    N663     N        0.08047    0.41678    0.70079    1.000
    Si664    Si       0.15259    0.46322    0.65341    1.000
    N665     N        0.17720    0.42833    0.65833    1.000
    N666     N        0.18841    0.43667    0.72135    1.000
    N667     N        0.03678    0.45159    0.79003    1.000
    N668     N        0.10019    0.45984    0.82183    1.000
    Si669    Si       0.07868    0.44577    0.78702    1.000
    N670     N        0.09993    0.47069    0.75874    1.000
    Si671    Si       0.13955    0.44273    0.82588    1.000
    N672     N        0.15597    0.44855    0.78596    1.000
    N673     N        0.16559    0.46357    0.85512    1.000
    Si674    Si       0.20638    0.47029    0.84464    1.000
    N675     N        0.22663    0.43705    0.86182    1.000
    N676     N        0.22130    0.47252    0.80428    1.000
    Si677    Si       0.17156    0.41735    0.75752    1.000
    N678     N        0.05302    0.45682    0.88330    1.000
    N679     N        0.08922    0.46052    0.97303    1.000
    Si680    Si       0.02626    0.42369    0.87949    1.000
    Si681    Si       0.11760    0.43623    0.94992    1.000
    N682     N        0.12245    0.45982    0.90954    1.000
    Si683    Si       0.16261    0.45664    0.89832    1.000
    N684     N        0.15625    0.44005    0.96898    1.000
    N685     N        0.04306    0.51685    0.04690    1.000
    N686     N        0.10365    0.50348    0.07073    1.000
    Si687    Si       0.06114    0.49495    0.08169    1.000
    Si688    Si       0.99831    0.49300    0.10836    1.000
    N689     N        0.03690    0.51402    0.11234    1.000
    Si690    Si       0.09605    0.53148    0.03573    1.000
    Si691    Si       0.01310    0.48556    0.03505    1.000
    Si692    Si       0.14406    0.49301    0.08078    1.000
    N693     N        0.16982    0.52977    0.08582    1.000
    N694     N        0.19656    0.48987    0.99779    1.000
    N695     N        0.01069    0.48912    0.20853    1.000
    Si696    Si       0.00717    0.53160    0.19529    1.000
    Si697    Si       0.16328    0.48947    0.15734    1.000
    N698     N        0.16193    0.53465    0.15624    1.000
    Si699    Si       0.18968    0.53323    0.12289    1.000
    N700     N        0.20639    0.49422    0.13196    1.000
    N701     N        0.12293    0.49251    0.18713    1.000
    Si702    Si       0.11861    0.53270    0.17306    1.000
    N703     N        0.06996    0.50242    0.29053    1.000
    Si704    Si       0.02903    0.48882    0.30030    1.000
    N705     N        0.99525    0.51690    0.29005    1.000
    N706     N        0.01764    0.53149    0.36395    1.000
    N707     N        0.21088    0.49108    0.31197    1.000
    N708     N        0.15405    0.52591    0.31742    1.000
    Si709    Si       0.17297    0.49173    0.33502    1.000
    N710     N        0.13522    0.49190    0.25733    1.000
    Si711    Si       0.14933    0.52959    0.27438    1.000
    Si712    Si       0.21863    0.53267    0.29265    1.000
    Si713    Si       0.23341    0.48970    0.35040    1.000
    N714     N        0.19680    0.50092    0.37207    1.000
    Si715    Si       0.10129    0.49690    0.47266    1.000
    N716     N        0.06080    0.50579    0.45839    1.000
    Si717    Si       0.00665    0.50055    0.39414    1.000
    N718     N        0.99739    0.51910    0.43344    1.000
    Si719    Si       0.02692    0.53210    0.46293    1.000
    N720     N        0.11541    0.48896    0.39892    1.000
    Si721    Si       0.11811    0.52966    0.41447    1.000
    Si722    Si       0.19115    0.53469    0.40101    1.000
    Si723    Si       0.20752    0.49608    0.47391    1.000
    N724     N        0.12192    0.53115    0.45899    1.000
    N725     N        0.20038    0.50592    0.43272    1.000
    N726     N        0.05527    0.51218    0.55997    1.000
    Si727    Si       0.09525    0.51532    0.54302    1.000
    Si728    Si       0.02324    0.49392    0.53583    1.000
    Si729    Si       0.04942    0.52975    0.59883    1.000
    N730     N        0.01430    0.52550    0.50407    1.000
    N731     N        0.00942    0.53185    0.61481    1.000
    N732     N        0.11491    0.48968    0.51287    1.000
    Si733    Si       0.23163    0.51428    0.58257    1.000
    N734     N        0.13274    0.52244    0.56459    1.000
    Si735    Si       0.15589    0.52334    0.60015    1.000
    Si736    Si       0.15374    0.50510    0.53007    1.000
    N737     N        0.23112    0.48549    0.54999    1.000
    N738     N        0.18535    0.51863    0.50321    1.000
    N739     N        0.15817    0.48167    0.61243    1.000
    N740     N        0.19460    0.53550    0.58356    1.000
    N741     N        0.07409    0.50627    0.62688    1.000
    N742     N        0.02620    0.53013    0.67925    1.000
    Si743    Si       0.06833    0.52225    0.66885    1.000
    N744     N        0.07816    0.48894    0.69319    1.000
    Si745    Si       0.00865    0.50020    0.70718    1.000
    N746     N        0.03615    0.50485    0.74293    1.000
    Si747    Si       0.07910    0.50062    0.73551    1.000
    N748     N        0.10929    0.53315    0.73585    1.000
    N749     N        0.16404    0.49291    0.68192    1.000
    N750     N        0.23257    0.48439    0.69568    1.000
    Si751    Si       0.17080    0.53517    0.66884    1.000
    Si752    Si       0.19019    0.47760    0.71250    1.000
    N753     N        0.21147    0.53703    0.65649    1.000
    N754     N        0.06196    0.51637    0.79913    1.000
    N755     N        0.08922    0.51574    0.86327    1.000
    Si756    Si       0.09610    0.50253    0.82249    1.000
    Si757    Si       0.02697    0.49272    0.78525    1.000
    N758     N        0.98866    0.50411    0.79840    1.000
    N759     N        0.13260    0.51707    0.79998    1.000
    Si760    Si       0.21195    0.50764    0.77825    1.000
    Si761    Si       0.14106    0.48630    0.76784    1.000
    N762     N        0.21970    0.50368    0.86975    1.000
    N763     N        0.17915    0.49764    0.75155    1.000
    N764     N        0.07859    0.50860    0.92631    1.000
    Si765    Si       0.09681    0.50166    0.96363    1.000
    Si766    Si       0.08686    0.48021    0.89181    1.000
    N767     N        0.08008    0.52721    0.99528    1.000
    Si768    Si       0.17094    0.48084    0.96521    1.000
    Si769    Si       0.23254    0.50730    0.98229    1.000
    Si770    Si       0.22689    0.49723    0.91152    1.000
    N771     N        0.23398    0.52842    0.94257    1.000
    N772     N        0.14107    0.51124    0.96631    1.000
    N773     N        0.18934    0.47743    0.92543    1.000
    N774     N        0.08368    0.56729    0.05809    1.000
    N775     N        0.03778    0.58007    0.01235    1.000
    Si776    Si       0.04006    0.55992    0.05153    1.000
    N777     N        0.99755    0.56692    0.06802    1.000
    N778     N        0.03666    0.58504    0.11775    1.000
    Si779    Si       0.99590    0.59033    0.10396    1.000
    Si780    Si       0.17226    0.55820    0.04931    1.000
    N781     N        0.21366    0.57996    0.06298    1.000
    N782     N        0.19563    0.55394    0.00933    1.000
    Si783    Si       0.23579    0.55993    0.02993    1.000
    N784     N        0.13646    0.54380    0.02475    1.000
    Si785    Si       0.23995    0.56924    0.09611    1.000
    Si786    Si       0.04999    0.54726    0.13472    1.000
    N787     N        0.09443    0.55251    0.14146    1.000
    N788     N        0.04020    0.55198    0.17627    1.000
    N789     N        0.06456    0.58598    0.23378    1.000
    Si790    Si       0.10926    0.58353    0.23608    1.000
    Si791    Si       0.05207    0.59177    0.19271    1.000
    N792     N        0.99433    0.55662    0.22870    1.000
    Si793    Si       0.10921    0.59528    0.14376    1.000
    N794     N        0.12952    0.56210    0.20400    1.000
    N795     N        0.15251    0.59770    0.15141    1.000
    Si796    Si       0.16701    0.57011    0.18131    1.000
    Si797    Si       0.23718    0.56126    0.17612    1.000
    N798     N        0.20420    0.57475    0.20265    1.000
    N799     N        0.22118    0.56205    0.13432    1.000
    N800     N        0.04951    0.56754    0.30139    1.000
    N801     N        0.10051    0.55485    0.34201    1.000
    Si802    Si       0.02600    0.56711    0.33899    1.000
    Si803    Si       0.08496    0.54195    0.30270    1.000
    Si804    Si       0.08556    0.58358    0.37024    1.000
    N805     N        0.11395    0.55529    0.27214    1.000
    N806     N        0.04548    0.59525    0.36543    1.000
    Si807    Si       0.14291    0.55322    0.34935    1.000
    N808     N        0.16565    0.58833    0.34188    1.000
    Si809    Si       0.20689    0.58821    0.35153    1.000
    N810     N        0.18724    0.54728    0.26513    1.000
    N811     N        0.23147    0.56944    0.31605    1.000
    Si812    Si       0.20505    0.58558    0.24560    1.000
    Si813    Si       0.07357    0.58794    0.43952    1.000
    N814     N        0.03855    0.57261    0.45654    1.000
    N815     N        0.08859    0.56217    0.40898    1.000
    N816     N        0.21557    0.56940    0.38890    1.000
    N817     N        0.15147    0.54636    0.39302    1.000
    N818     N        0.21887    0.57543    0.46944    1.000
    Si819    Si       0.11697    0.56261    0.48920    1.000
    N820     N        0.06423    0.56956    0.59080    1.000
    Si821    Si       0.06973    0.58048    0.54829    1.000
    N822     N        0.08708    0.55393    0.52104    1.000
    Si823    Si       0.00010    0.56627    0.51398    1.000
    N824     N        0.02845    0.59109    0.53851    1.000
    N825     N        0.15233    0.57491    0.50977    1.000
    Si826    Si       0.19847    0.58032    0.57830    1.000
    N827     N        0.21383    0.58192    0.53668    1.000
    Si828    Si       0.19310    0.56307    0.50388    1.000
    N829     N        0.22621    0.59457    0.60851    1.000
    N830     N        0.01888    0.59118    0.65535    1.000
    Si831    Si       0.99931    0.55325    0.65284    1.000
    N832     N        0.09260    0.55837    0.67185    1.000
    N833     N        0.10305    0.59413    0.73801    1.000
    N834     N        0.15738    0.56314    0.70025    1.000
    N835     N        0.14609    0.55038    0.63331    1.000
    Si836    Si       0.11567    0.58733    0.64704    1.000
    Si837    Si       0.11504    0.56477    0.70804    1.000
    N838     N        0.21836    0.58114    0.74231    1.000
    N839     N        0.09217    0.57400    0.79998    1.000
    N840     N        0.01841    0.56288    0.81979    1.000
    Si841    Si       0.05264    0.55865    0.79347    1.000
    Si842    Si       0.02863    0.58201    0.85860    1.000
    N843     N        0.04022    0.58699    0.76308    1.000
    Si844    Si       0.99965    0.59368    0.75245    1.000
    Si845    Si       0.11688    0.56339    0.76680    1.000
    N846     N        0.15632    0.57512    0.77676    1.000
    Si847    Si       0.23189    0.57972    0.80944    1.000
    N848     N        0.16769    0.55065    0.85461    1.000
    Si849    Si       0.16099    0.54860    0.81117    1.000
    N850     N        0.23854    0.57269    0.85109    1.000
    N851     N        0.20463    0.54149    0.80737    1.000
    Si852    Si       0.20953    0.54054    0.85137    1.000
    Si853    Si       0.10994    0.59055    0.93618    1.000
    N854     N        0.03554    0.55632    0.89303    1.000
    Si855    Si       0.04967    0.55319    0.97986    1.000
    N856     N        0.07104    0.58335    0.95266    1.000
    N857     N        0.01424    0.54146    0.95995    1.000
    Si858    Si       0.07693    0.54169    0.89529    1.000
    Si859    Si       0.00220    0.54292    0.91780    1.000
    N860     N        0.11155    0.56892    0.89785    1.000
    Si861    Si       0.14739    0.58250    0.87657    1.000
    N862     N        0.14656    0.58320    0.95820    1.000
    Si863    Si       0.15650    0.54825    0.98575    1.000
    N864     N        0.21416    0.59855    0.95930    1.000
    N865     N        0.04843    0.62867    0.06377    1.000
    Si866    Si       0.06250    0.61735    0.01955    1.000
    N867     N        0.10163    0.61785    0.10630    1.000
    N868     N        0.10399    0.62630    0.02817    1.000
    Si869    Si       0.05758    0.62171    0.10470    1.000
    Si870    Si       0.99854    0.60064    0.00209    1.000
    N871     N        0.99623    0.63672    0.02328    1.000
    Si872    Si       0.01151    0.65070    0.06190    1.000
    Si873    Si       0.11117    0.60046    0.06455    1.000
    N874     N        0.19957    0.64470    0.08695    1.000
    Si875    Si       0.19191    0.61847    0.05499    1.000
    N876     N        0.20347    0.63875    0.01733    1.000
    Si877    Si       0.23388    0.64099    0.11219    1.000
    N878     N        0.15370    0.59761    0.06066    1.000
    Si879    Si       0.01128    0.65277    0.16379    1.000
    N880     N        0.01748    0.61865    0.19132    1.000
    N881     N        0.08484    0.61383    0.17186    1.000
    Si882    Si       0.99548    0.59994    0.22646    1.000
    N883     N        0.03637    0.65277    0.12809    1.000
    N884     N        0.17535    0.64717    0.19919    1.000
    N885     N        0.21381    0.64087    0.15159    1.000
    N886     N        0.12485    0.62342    0.24085    1.000
    Si887    Si       0.17095    0.63624    0.15716    1.000
    N888     N        0.07350    0.63243    0.29163    1.000
    N889     N        0.01134    0.61539    0.26206    1.000
    Si890    Si       0.04964    0.59832    0.27380    1.000
    Si891    Si       0.99695    0.64967    0.28502    1.000
    Si892    Si       0.11262    0.64209    0.27773    1.000
    N893     N        0.10823    0.62076    0.37166    1.000
    Si894    Si       0.14317    0.62575    0.34877    1.000
    N895     N        0.22396    0.62900    0.34046    1.000
    N896     N        0.19692    0.62114    0.27320    1.000
    N897     N        0.14039    0.64377    0.31003    1.000
    Si898    Si       0.23528    0.61171    0.29893    1.000
    Si899    Si       0.17841    0.65656    0.28984    1.000
    N900     N        0.01968    0.64730    0.47830    1.000
    N901     N        0.99836    0.61842    0.41782    1.000
    Si902    Si       0.01237    0.60863    0.45848    1.000
    Si903    Si       0.10141    0.64298    0.40738    1.000
    N904     N        0.06459    0.62557    0.42130    1.000
    Si905    Si       0.03280    0.62683    0.39271    1.000
    N906     N        0.10160    0.59825    0.47035    1.000
    N907     N        0.19984    0.64230    0.43833    1.000
    Si908    Si       0.22820    0.61803    0.45807    1.000
    N909     N        0.17129    0.65022    0.37349    1.000
    Si910    Si       0.11560    0.63962    0.47711    1.000
    N911     N        0.13062    0.64948    0.43823    1.000
    N912     N        0.09878    0.61322    0.54735    1.000
    Si913    Si       0.01769    0.62785    0.56022    1.000
    N914     N        0.02070    0.62604    0.60420    1.000
    Si915    Si       0.04797    0.59715    0.62010    1.000
    Si916    Si       0.17291    0.64679    0.59658    1.000
    N917     N        0.16484    0.60911    0.57526    1.000
    N918     N        0.14333    0.63936    0.50871    1.000
    Si919    Si       0.14059    0.60632    0.53677    1.000
    N920     N        0.08301    0.61480    0.63669    1.000
    Si921    Si       0.00726    0.63250    0.64439    1.000
    N922     N        0.05744    0.64869    0.73575    1.000
    Si923    Si       0.17356    0.60351    0.69771    1.000
    N924     N        0.14496    0.61521    0.66401    1.000
    N925     N        0.17155    0.63168    0.73267    1.000
    N926     N        0.20076    0.65017    0.62885    1.000
    Si927    Si       0.22598    0.61887    0.64347    1.000
    N928     N        0.21114    0.60346    0.68012    1.000
    N929     N        0.09891    0.63623    0.79133    1.000
    Si930    Si       0.09803    0.60935    0.82510    1.000
    Si931    Si       0.07435    0.61676    0.75856    1.000
    N932     N        0.06408    0.60540    0.85391    1.000
    N933     N        0.99205    0.60750    0.85832    1.000
    N934     N        0.98952    0.63335    0.76409    1.000
    N935     N        0.20844    0.61475    0.79911    1.000
    Si936    Si       0.18587    0.60393    0.76357    1.000
    N937     N        0.13356    0.61162    0.84740    1.000
    N938     N        0.00025    0.60837    0.95859    1.000
    N939     N        0.05447    0.63949    0.98472    1.000
    Si940    Si       0.07182    0.63609    0.88508    1.000
    Si941    Si       0.04222    0.61539    0.94967    1.000
    N942     N        0.03675    0.63315    0.90862    1.000
    Si943    Si       0.00109    0.64110    0.88321    1.000
    N944     N        0.10550    0.63119    0.91262    1.000
    Si945    Si       0.17644    0.61297    0.94628    1.000
    Si946    Si       0.23658    0.62184    0.99180    1.000
    Si947    Si       0.14621    0.64677    0.90336    1.000
    N948     N        0.16922    0.60847    0.90251    1.000
    N949     N        0.08192    0.68820    0.02769    1.000
    N950     N        0.02669    0.69200    0.06909    1.000
    Si951    Si       0.05972    0.71545    0.05190    1.000
    Si952    Si       0.11392    0.66021    0.10886    1.000
    Si953    Si       0.12006    0.66724    0.03467    1.000
    N954     N        0.19498    0.70356    0.04849    1.000
    Si955    Si       0.19191    0.68019    0.01168    1.000
    N956     N        0.13819    0.67432    0.07403    1.000
    Si957    Si       0.18186    0.68356    0.08412    1.000
    N958     N        0.14756    0.68233    0.00569    1.000
    N959     N        0.19683    0.70747    0.11880    1.000
    N960     N        0.08770    0.68883    0.12919    1.000
    Si961    Si       0.04575    0.69636    0.13758    1.000
    N962     N        0.01963    0.69288    0.17391    1.000
    N963     N        0.11479    0.68711    0.20204    1.000
    Si964    Si       0.23561    0.70301    0.14029    1.000
    N965     N        0.22696    0.70415    0.18493    1.000
    Si966    Si       0.11951    0.69671    0.16106    1.000
    Si967    Si       0.21593    0.66105    0.19061    1.000
    N968     N        0.14274    0.66402    0.14259    1.000
    Si969    Si       0.14129    0.65911    0.22231    1.000
    Si970    Si       0.06409    0.67451    0.29501    1.000
    N971     N        0.02479    0.68229    0.28061    1.000
    N972     N        0.09577    0.68658    0.26551    1.000
    N973     N        0.07550    0.69843    0.33033    1.000
    N974     N        0.19458    0.68626    0.31642    1.000
    N975     N        0.15911    0.67839    0.25767    1.000
    Si976    Si       0.20884    0.66687    0.35310    1.000
    Si977    Si       0.13448    0.70992    0.26979    1.000
    Si978    Si       0.05804    0.69711    0.37172    1.000
    N979     N        0.02759    0.66754    0.37883    1.000
    Si980    Si       0.04653    0.68256    0.47672    1.000
    N981     N        0.09262    0.68478    0.39654    1.000
    N982     N        0.08306    0.66464    0.49114    1.000
    N983     N        0.22623    0.69772    0.37751    1.000
    N984     N        0.16588    0.70276    0.41287    1.000
    Si985    Si       0.16895    0.66005    0.41595    1.000
    Si986    Si       0.04488    0.69156    0.58071    1.000
    N987     N        0.07360    0.68187    0.61056    1.000
    N988     N        0.04807    0.65851    0.55259    1.000
    N989     N        0.01722    0.70489    0.50463    1.000
    Si990    Si       0.99277    0.66938    0.50722    1.000
    N991     N        0.00734    0.71352    0.58901    1.000
    Si992    Si       0.08698    0.65331    0.53431    1.000
    N993     N        0.11327    0.68420    0.55035    1.000
    Si994    Si       0.11295    0.69112    0.59635    1.000
    Si995    Si       0.15250    0.67611    0.52976    1.000
    N996     N        0.18063    0.67272    0.56272    1.000
    N997     N        0.13635    0.66244    0.61487    1.000
    Si998    Si       0.19965    0.70890    0.57950    1.000
    N999     N        0.16411    0.70507    0.50073    1.000
    N1000    N        0.10208    0.66671    0.67762    1.000
    Si1001   Si       0.02551    0.69693    0.68596    1.000
    Si1002   Si       0.08807    0.67632    0.71746    1.000
    N1003    N        0.00050    0.68301    0.71774    1.000
    N1004    N        0.05982    0.70998    0.71223    1.000
    N1005    N        0.03446    0.66094    0.66228    1.000
    Si1006   Si       0.07433    0.65601    0.64645    1.000
    Si1007   Si       0.19672    0.70740    0.65528    1.000
    N1008    N        0.18751    0.70549    0.74395    1.000
    Si1009   Si       0.14159    0.65774    0.65850    1.000
    N1010    N        0.17036    0.67930    0.68153    1.000
    Si1011   Si       0.16092    0.67608    0.72486    1.000
    Si1012   Si       0.22649    0.68578    0.73968    1.000
    N1013    N        0.12154    0.68037    0.74460    1.000
    Si1014   Si       0.03967    0.68727    0.83277    1.000
    N1015    N        0.06968    0.67132    0.86008    1.000
    N1016    N        0.00402    0.67464    0.85548    1.000
    Si1017   Si       0.10456    0.69693    0.86096    1.000
    N1018    N        0.03517    0.67734    0.79097    1.000
    Si1019   Si       0.01843    0.66395    0.75169    1.000
    N1020    N        0.11086    0.70588    0.81836    1.000
    Si1021   Si       0.12342    0.67496    0.78991    1.000
    N1022    N        0.16548    0.66993    0.80353    1.000
    N1023    N        0.21190    0.67089    0.84748    1.000
    Si1024   Si       0.16939    0.68915    0.84298    1.000
    N1025    N        0.14156    0.67825    0.87381    1.000
    Si1026   Si       0.20862    0.65698    0.80721    1.000
    N1027    N        0.02090    0.69697    0.98454    1.000
    Si1028   Si       0.06096    0.68191    0.99139    1.000
    N1029    N        0.09215    0.70064    0.96562    1.000
    N1030    N        0.21269    0.70145    0.90978    1.000
    Si1031   Si       0.18657    0.69528    0.94270    1.000
    N1032    N        0.20936    0.70586    0.97948    1.000
    Si1033   Si       0.23814    0.69105    0.87677    1.000
    N1034    N        0.16942    0.65533    0.94295    1.000
    N1035    N        0.03657    0.74457    0.03118    1.000
    N1036    N        0.08984    0.74227    0.07213    1.000
    Si1037   Si       0.06721    0.76133    0.10590    1.000
    Si1038   Si       0.00275    0.72188    0.09069    1.000
    N1039    N        0.03656    0.73326    0.11620    1.000
    Si1040   Si       0.99310    0.73904    0.02525    1.000
    Si1041   Si       0.12775    0.76018    0.05675    1.000
    N1042    N        0.13663    0.75209    0.01455    1.000
    Si1043   Si       0.19515    0.74790    0.05583    1.000
    N1044    N        0.16358    0.75536    0.08429    1.000
    N1045    N        0.23298    0.76054    0.07388    1.000
    N1046    N        0.08361    0.74288    0.19039    1.000
    Si1047   Si       0.04715    0.76085    0.20559    1.000
    N1048    N        0.00806    0.75991    0.18688    1.000
    N1049    N        0.05104    0.73309    0.24081    1.000
    Si1050   Si       0.99272    0.72080    0.19123    1.000
    Si1051   Si       0.11204    0.76491    0.16471    1.000
    Si1052   Si       0.09208    0.71849    0.22627    1.000
    N1053    N        0.12898    0.74169    0.24149    1.000
    N1054    N        0.19518    0.76135    0.22468    1.000
    Si1055   Si       0.21609    0.74976    0.18949    1.000
    Si1056   Si       0.17292    0.74341    0.12439    1.000
    N1057    N        0.13712    0.73467    0.14988    1.000
    N1058    N        0.19246    0.77107    0.15261    1.000
    Si1059   Si       0.10342    0.73176    0.33430    1.000
    Si1060   Si       0.01477    0.72038    0.26126    1.000
    N1061    N        0.99798    0.74795    0.28929    1.000
    N1062    N        0.08541    0.76832    0.32184    1.000
    Si1063   Si       0.21975    0.76206    0.26078    1.000
    Si1064   Si       0.18187    0.72936    0.31836    1.000
    N1065    N        0.18035    0.74300    0.36019    1.000
    N1066    N        0.19134    0.76242    0.29205    1.000
    N1067    N        0.13790    0.72495    0.31006    1.000
    Si1068   Si       0.14590    0.77072    0.36866    1.000
    N1069    N        0.04090    0.73493    0.37736    1.000
    Si1070   Si       0.04537    0.75664    0.43927    1.000
    N1071    N        0.04529    0.71283    0.44564    1.000
    Si1072   Si       0.01453    0.74559    0.49634    1.000
    N1073    N        0.04946    0.76783    0.48222    1.000
    Si1074   Si       0.14125    0.73885    0.48499    1.000
    Si1075   Si       0.12250    0.71424    0.41086    1.000
    N1076    N        0.12191    0.73896    0.44719    1.000
    Si1077   Si       0.19943    0.72595    0.39484    1.000
    N1078    N        0.11604    0.73989    0.37523    1.000
    N1079    N        0.17820    0.76463    0.48636    1.000
    N1080    N        0.21552    0.76083    0.41541    1.000
    Si1081   Si       0.10300    0.72929    0.55069    1.000
    N1082    N        0.05911    0.72765    0.55801    1.000
    Si1083   Si       0.02199    0.74978    0.56819    1.000
    N1084    N        0.99767    0.76203    0.53559    1.000
    N1085    N        0.11094    0.74929    0.51426    1.000
    Si1086   Si       0.15266    0.75757    0.60944    1.000
    N1087    N        0.12067    0.73353    0.59133    1.000
    N1088    N        0.19977    0.74156    0.54916    1.000
    Si1089   Si       0.19961    0.73082    0.50643    1.000
    N1090    N        0.18196    0.72309    0.61618    1.000
    Si1091   Si       0.01213    0.76736    0.67557    1.000
    N1092    N        0.00658    0.72640    0.65762    1.000
    Si1093   Si       0.05443    0.74428    0.73711    1.000
    N1094    N        0.22445    0.76313    0.74713    1.000
    N1095    N        0.15198    0.76487    0.71654    1.000
    N1096    N        0.20088    0.74350    0.68046    1.000
    N1097    N        0.01663    0.74645    0.76122    1.000
    Si1098   Si       0.01164    0.74040    0.80422    1.000
    N1099    N        0.08786    0.75217    0.76454    1.000
    Si1100   Si       0.08808    0.74173    0.80661    1.000
    N1101    N        0.04946    0.73068    0.82575    1.000
    N1102    N        0.10705    0.77260    0.83192    1.000
    N1103    N        0.17809    0.73100    0.84618    1.000
    Si1104   Si       0.21528    0.75422    0.84937    1.000
    Si1105   Si       0.18062    0.74941    0.74849    1.000
    N1106    N        0.15275    0.77294    0.77689    1.000
    Si1107   Si       0.09837    0.76717    0.87440    1.000
    N1108    N        0.10111    0.76721    0.95349    1.000
    Si1109   Si       0.08036    0.73210    0.93555    1.000
    N1110    N        0.09299    0.72863    0.89135    1.000
    N1111    N        0.03830    0.74078    0.93805    1.000
    Si1112   Si       0.00292    0.72716    0.95576    1.000
    Si1113   Si       0.13238    0.71677    0.98341    1.000
    Si1114   Si       0.23963    0.73951    0.97346    1.000
    N1115    N        0.15158    0.72279    0.94467    1.000
    Si1116   Si       0.13811    0.76177    0.93301    1.000
    N1117    N        0.04815    0.79329    0.08373    1.000
    N1118    N        0.01428    0.81239    0.03027    1.000
    N1119    N        0.08011    0.79776    0.01543    1.000
    Si1120   Si       0.04670    0.78636    0.04075    1.000
    Si1121   Si       0.11051    0.82395    0.03130    1.000
    Si1122   Si       0.11008    0.81567    0.10668    1.000
    Si1123   Si       0.04449    0.83176    0.10483    1.000
    N1124    N        0.11855    0.80122    0.06717    1.000
    N1125    N        0.14849    0.82372    0.01128    1.000
    Si1126   Si       0.16462    0.78499    0.99920    1.000
    N1127    N        0.20103    0.77673    0.02387    1.000
    N1128    N        0.05305    0.80555    0.20927    1.000
    N1129    N        0.03045    0.81819    0.14471    1.000
    N1130    N        0.09206    0.78348    0.13105    1.000
    Si1131   Si       0.99850    0.78679    0.15156    1.000
    N1132    N        0.99713    0.80739    0.24394    1.000
    Si1133   Si       0.15299    0.77480    0.22946    1.000
    N1134    N        0.13828    0.78901    0.18777    1.000
    N1135    N        0.14551    0.82662    0.12858    1.000
    Si1136   Si       0.16870    0.80632    0.16068    1.000
    Si1137   Si       0.06319    0.80590    0.32648    1.000
    N1138    N        0.04036    0.80481    0.28861    1.000
    N1139    N        0.04209    0.80521    0.36502    1.000
    Si1140   Si       0.99911    0.79054    0.28408    1.000
    Si1141   Si       0.03866    0.82653    0.24896    1.000
    N1142    N        0.14930    0.80688    0.25760    1.000
    Si1143   Si       0.16744    0.79877    0.29671    1.000
    N1144    N        0.14691    0.79825    0.33682    1.000
    Si1145   Si       0.17356    0.83094    0.34887    1.000
    Si1146   Si       0.05928    0.81691    0.40224    1.000
    N1147    N        0.07532    0.78427    0.42388    1.000
    N1148    N        0.00970    0.77533    0.42076    1.000
    N1149    N        0.11282    0.80646    0.47605    1.000
    Si1150   Si       0.01749    0.77174    0.37904    1.000
    Si1151   Si       0.20591    0.79679    0.48618    1.000
    N1152    N        0.19585    0.81898    0.45006    1.000
    Si1153   Si       0.11739    0.78252    0.43753    1.000
    Si1154   Si       0.19107    0.79564    0.41297    1.000
    N1155    N        0.20309    0.81746    0.37717    1.000
    N1156    N        0.14826    0.78814    0.40928    1.000
    Si1157   Si       0.07224    0.81222    0.57568    1.000
    N1158    N        0.03614    0.78745    0.58504    1.000
    Si1159   Si       0.00123    0.80011    0.60867    1.000
    N1160    N        0.08751    0.80941    0.53463    1.000
    N1161    N        0.10533    0.81048    0.60192    1.000
    Si1162   Si       0.08655    0.78093    0.50146    1.000
    N1163    N        0.20827    0.81074    0.52776    1.000
    N1164    N        0.16570    0.79250    0.58338    1.000
    Si1165   Si       0.14084    0.82590    0.58270    1.000
    Si1166   Si       0.20416    0.78409    0.56381    1.000
    N1167    N        0.23130    0.78372    0.59677    1.000
    N1168    N        0.01716    0.80014    0.65035    1.000
    Si1169   Si       0.05449    0.81518    0.73101    1.000
    N1170    N        0.09890    0.81186    0.73142    1.000
    N1171    N        0.08554    0.82363    0.66484    1.000
    N1172    N        0.04262    0.77713    0.71018    1.000
    Si1173   Si       0.04243    0.83098    0.66347    1.000
    N1174    N        0.20221    0.81141    0.68337    1.000
    N1175    N        0.14755    0.77784    0.64674    1.000
    Si1176   Si       0.12548    0.81874    0.64015    1.000
    Si1177   Si       0.17244    0.77866    0.68100    1.000
    Si1178   Si       0.11976    0.77743    0.74814    1.000
    Si1179   Si       0.01892    0.81862    0.80351    1.000
    N1180    N        0.00075    0.78190    0.81492    1.000
    N1181    N        0.04877    0.82142    0.77251    1.000
    N1182    N        0.05391    0.82637    0.83237    1.000
    Si1183   Si       0.06674    0.82964    0.87330    1.000
    N1184    N        0.16902    0.81300    0.83905    1.000
    Si1185   Si       0.20553    0.82357    0.81591    1.000
    Si1186   Si       0.13813    0.79400    0.81223    1.000
    N1187    N        0.22243    0.77933    0.81484    1.000
    N1188    N        0.12045    0.83273    0.80048    1.000
    N1189    N        0.99577    0.79027    0.91060    1.000
    N1190    N        0.06514    0.78794    0.89161    1.000
    Si1191   Si       0.08318    0.80247    0.97258    1.000
    N1192    N        0.04187    0.80448    0.96094    1.000
    Si1193   Si       0.01353    0.82479    0.98777    1.000
    Si1194   Si       0.03590    0.78151    0.92345    1.000
    Si1195   Si       0.99693    0.83234    0.89949    1.000
    N1196    N        0.17732    0.82780    0.90859    1.000
    N1197    N        0.21747    0.77962    0.88689    1.000
    N1198    N        0.16541    0.78574    0.95672    1.000
    Si1199   Si       0.19815    0.79124    0.92533    1.000
    Si1200   Si       0.14841    0.81769    0.87852    1.000
    N1201    N        0.22924    0.77865    0.95366    1.000
    N1202    N        0.13608    0.77875    0.89389    1.000
    N1203    N        0.01329    0.85716    0.08804    1.000
    N1204    N        0.08313    0.84910    0.09990    1.000
    N1205    N        0.09184    0.86313    0.03121    1.000
    Si1206   Si       0.09971    0.87828    0.07132    1.000
    Si1207   Si       0.99136    0.83813    0.05487    1.000
    N1208    N        0.19875    0.88289    0.10002    1.000
    N1209    N        0.21509    0.86985    0.03421    1.000
    N1210    N        0.14441    0.87175    0.07339    1.000
    Si1211   Si       0.16045    0.86562    0.11307    1.000
    Si1212   Si       0.18444    0.88775    0.05832    1.000
    N1213    N        0.01776    0.86462    0.19539    1.000
    Si1214   Si       0.08794    0.87865    0.21573    1.000
    N1215    N        0.08710    0.85726    0.17702    1.000
    Si1216   Si       0.04963    0.83607    0.18057    1.000
    N1217    N        0.14151    0.88844    0.14469    1.000
    Si1218   Si       0.21085    0.85716    0.20444    1.000
    N1219    N        0.19199    0.85719    0.24314    1.000
    N1220    N        0.13123    0.87257    0.21713    1.000
    Si1221   Si       0.13397    0.85806    0.17469    1.000
    N1222    N        0.17768    0.84246    0.17994    1.000
    Si1223   Si       0.09059    0.86740    0.28673    1.000
    N1224    N        0.01180    0.86744    0.26928    1.000
    N1225    N        0.08658    0.84322    0.32121    1.000
    Si1226   Si       0.10883    0.86121    0.35535    1.000
    N1227    N        0.07332    0.85484    0.25017    1.000
    N1228    N        0.13298    0.87333    0.28462    1.000
    Si1229   Si       0.20300    0.86821    0.28270    1.000
    N1230    N        0.15300    0.86552    0.36071    1.000
    N1231    N        0.18776    0.83598    0.30887    1.000
    Si1232   Si       0.14764    0.85053    0.25071    1.000
    Si1233   Si       0.00663    0.85793    0.45595    1.000
    Si1234   Si       0.06426    0.87618    0.41327    1.000
    N1235    N        0.08855    0.84792    0.39007    1.000
    N1236    N        0.03412    0.84489    0.42591    1.000
    N1237    N        0.08560    0.88379    0.44868    1.000
    N1238    N        0.02073    0.87534    0.49363    1.000
    N1239    N        0.15473    0.87493    0.42597    1.000
    Si1240   Si       0.17879    0.85735    0.45536    1.000
    N1241    N        0.14765    0.86565    0.48693    1.000
    N1242    N        0.20682    0.88269    0.47755    1.000
    N1243    N        0.05840    0.85261    0.57656    1.000
    Si1244   Si       0.02318    0.87077    0.59824    1.000
    N1245    N        0.08531    0.87234    0.51535    1.000
    Si1246   Si       0.07240    0.88743    0.55405    1.000
    N1247    N        0.99163    0.84051    0.59540    1.000
    Si1248   Si       0.11661    0.84091    0.51117    1.000
    N1249    N        0.13960    0.85170    0.54881    1.000
    N1250    N        0.21131    0.87801    0.54514    1.000
    Si1251   Si       0.17935    0.87948    0.51368    1.000
    Si1252   Si       0.23673    0.84363    0.53993    1.000
    N1253    N        0.14604    0.85390    0.61593    1.000
    N1254    N        0.09228    0.88366    0.70758    1.000
    N1255    N        0.03118    0.84471    0.70494    1.000
    N1256    N        0.03933    0.86584    0.64080    1.000
    Si1257   Si       0.10459    0.84224    0.69881    1.000
    Si1258   Si       0.04926    0.88643    0.71283    1.000
    Si1259   Si       0.18410    0.85089    0.68209    1.000
    N1260    N        0.18960    0.87894    0.71354    1.000
    Si1261   Si       0.16314    0.88973    0.63110    1.000
    N1262    N        0.20026    0.87450    0.64851    1.000
    N1263    N        0.14364    0.83654    0.68127    1.000
    N1264    N        0.08785    0.88593    0.80464    1.000
    Si1265   Si       0.07710    0.84128    0.79737    1.000
    Si1266   Si       0.00178    0.88786    0.77198    1.000
    N1267    N        0.99274    0.85215    0.79764    1.000
    N1268    N        0.23149    0.84297    0.84619    1.000
    Si1269   Si       0.18973    0.87953    0.75850    1.000
    N1270    N        0.20842    0.84458    0.77691    1.000
    Si1271   Si       0.12792    0.87411    0.81306    1.000
    N1272    N        0.15298    0.88956    0.77896    1.000
    N1273    N        0.11035    0.84040    0.87505    1.000
    N1274    N        0.10339    0.84199    0.96808    1.000
    N1275    N        0.03614    0.84943    0.89811    1.000
    N1276    N        0.03275    0.86310    0.99133    1.000
    Si1277   Si       0.07593    0.86973    0.99222    1.000
    Si1278   Si       0.03932    0.89206    0.89148    1.000
    Si1279   Si       0.14532    0.85501    0.98000    1.000
    N1280    N        0.21221    0.88663    0.90526    1.000
    N1281    N        0.18537    0.85940    0.96469    1.000
    Si1282   Si       0.17931    0.86726    0.92283    1.000
    Si1283   Si       0.11770    0.88257    0.88293    1.000
    Si1284   Si       0.21757    0.87592    0.98995    1.000
    N1285    N        0.13844    0.88536    0.92108    1.000
    N1286    N        0.02693    0.92937    0.01127    1.000
    N1287    N        0.00840    0.93333    0.08405    1.000
    N1288    N        0.09579    0.91961    0.08083    1.000
    Si1289   Si       0.00352    0.89360    0.99831    1.000
    Si1290   Si       0.99079    0.89257    0.08109    1.000
    Si1291   Si       0.06498    0.94124    0.99377    1.000
    N1292    N        0.17568    0.92499    0.03524    1.000
    Si1293   Si       0.13976    0.93282    0.01147    1.000
    Si1294   Si       0.20103    0.94839    0.00588    1.000
    N1295    N        0.10115    0.94508    0.14808    1.000
    Si1296   Si       0.01417    0.94827    0.12482    1.000
    N1297    N        0.06637    0.91797    0.21324    1.000
    N1298    N        0.03565    0.92723    0.15700    1.000
    Si1299   Si       0.02729    0.90834    0.19718    1.000
    N1300    N        0.99277    0.93061    0.20956    1.000
    N1301    N        0.21860    0.89977    0.19321    1.000
    Si1302   Si       0.14000    0.93023    0.15465    1.000
    N1303    N        0.15787    0.94315    0.19223    1.000
    Si1304   Si       0.20176    0.93656    0.20189    1.000
    N1305    N        0.22439    0.94752    0.24033    1.000
    N1306    N        0.07344    0.90814    0.28422    1.000
    Si1307   Si       0.05914    0.91895    0.35631    1.000
    N1308    N        0.00796    0.93310    0.28057    1.000
    N1309    N        0.02574    0.90669    0.33341    1.000
    N1310    N        0.09902    0.90222    0.35577    1.000
    Si1311   Si       0.03113    0.89897    0.29104    1.000
    Si1312   Si       0.07942    0.93677    0.25079    1.000
    Si1313   Si       0.98920    0.93135    0.33131    1.000
    Si1314   Si       0.11734    0.94249    0.35840    1.000
    N1315    N        0.18560    0.91108    0.28607    1.000
    Si1316   Si       0.14327    0.91692    0.28792    1.000
    Si1317   Si       0.21315    0.94307    0.28248    1.000
    N1318    N        0.12436    0.94102    0.25402    1.000
    N1319    N        0.13931    0.94703    0.32017    1.000
    N1320    N        0.04379    0.91312    0.39736    1.000
    Si1321   Si       0.00227    0.92518    0.41290    1.000
    N1322    N        0.05606    0.93231    0.49051    1.000
    Si1323   Si       0.06192    0.89071    0.48499    1.000
    N1324    N        0.13253    0.93225    0.46007    1.000
    N1325    N        0.20727    0.90920    0.39926    1.000
    Si1326   Si       0.16574    0.89357    0.39039    1.000
    N1327    N        0.15030    0.93423    0.38879    1.000
    Si1328   Si       0.12690    0.89001    0.45547    1.000
    N1329    N        0.03289    0.90747    0.55853    1.000
    N1330    N        0.10329    0.91285    0.56703    1.000
    Si1331   Si       0.00302    0.89711    0.52896    1.000
    N1332    N        0.00319    0.90908    0.61729    1.000
    Si1333   Si       0.03964    0.94144    0.59116    1.000
    N1334    N        0.15940    0.91433    0.52747    1.000
    Si1335   Si       0.21193    0.91082    0.57476    1.000
    N1336    N        0.17073    0.91274    0.59501    1.000
    Si1337   Si       0.14348    0.89388    0.56389    1.000
    Si1338   Si       0.15041    0.94908    0.49778    1.000
    N1339    N        0.06262    0.93307    0.63010    1.000
    Si1340   Si       0.03367    0.90727    0.64857    1.000
    N1341    N        0.02779    0.91540    0.68936    1.000
    N1342    N        0.13900    0.90922    0.66158    1.000
    Si1343   Si       0.19258    0.92265    0.71382    1.000
    N1344    N        0.15195    0.93296    0.72552    1.000
    Si1345   Si       0.11808    0.91628    0.69967    1.000
    Si1346   Si       0.06815    0.91632    0.78237    1.000
    Si1347   Si       0.01167    0.92934    0.83304    1.000
    N1348    N        0.09997    0.93870    0.76354    1.000
    N1349    N        0.04458    0.94108    0.80783    1.000
    N1350    N        0.04043    0.89522    0.75505    1.000
    N1351    N        0.02162    0.89127    0.85236    1.000
    Si1352   Si       0.14258    0.93254    0.76871    1.000
    N1353    N        0.21257    0.92050    0.75421    1.000
    Si1354   Si       0.14655    0.94138    0.84677    1.000
    N1355    N        0.13954    0.89668    0.84883    1.000
    N1356    N        0.23769    0.91454    0.84601    1.000
    N1357    N        0.07595    0.90755    0.96726    1.000
    N1358    N        0.01038    0.91806    0.90954    1.000
    N1359    N        0.08007    0.90526    0.89365    1.000
    Si1360   Si       0.09208    0.94615    0.89885    1.000
    Si1361   Si       0.11595    0.90759    0.94959    1.000
    N1362    N        0.11989    0.95006    0.93315    1.000
    N1363    N        0.13648    0.89804    0.98684    1.000
    N1364    N        0.22454    0.91974    0.98112    1.000
    N1365    N        0.17948    0.94710    0.87493    1.000
    Si1366   Si       0.21430    0.92266    0.88174    1.000
    N1367    N        0.04054    0.98476    0.05054    1.000
    N1368    N        0.09870    0.99301    0.09583    1.000
    Si1369   Si       0.05646    0.99620    0.08921    1.000
    Si1370   Si       0.09317    0.99819    0.00164    1.000
    N1371    N        0.10294    0.95554    0.01366    1.000
    Si1372   Si       0.01050    0.95255    0.04529    1.000
    Si1373   Si       0.11114    0.95270    0.10445    1.000
    N1374    N        0.21803    0.98096    0.10335    1.000
    N1375    N        0.22228    0.97977    0.02812    1.000
    Si1376   Si       0.17616    0.98756    0.11454    1.000
    Si1377   Si       0.21082    0.00195    0.06429    1.000
    N1378    N        0.16803    0.00500    0.07446    1.000
    N1379    N        0.15299    0.95034    0.11581    1.000
    N1380    N        0.03070    0.98956    0.12098    1.000
    N1381    N        0.09618    0.97805    0.20809    1.000
    N1382    N        0.03978    0.98814    0.18689    1.000
    Si1383   Si       0.05730    0.99554    0.22439    1.000
    Si1384   Si       0.07062    0.95440    0.17932    1.000
    Si1385   Si       0.13674    0.96725    0.22175    1.000
    N1386    N        0.21580    0.96736    0.17623    1.000
    N1387    N        0.16566    0.00323    0.22095    1.000
    Si1388   Si       0.19121    0.00242    0.18555    1.000
    Si1389   Si       0.02338    0.97783    0.29123    1.000
    N1390    N        0.05817    0.97325    0.26166    1.000
    N1391    N        0.07683    0.95764    0.34845    1.000
    Si1392   Si       0.07010    0.00015    0.35168    1.000
    N1393    N        0.99609    0.97491    0.32857    1.000
    N1394    N        0.99350    0.98763    0.26132    1.000
    Si1395   Si       0.00609    0.01001    0.34928    1.000
    N1396    N        0.19932    0.97978    0.29933    1.000
    Si1397   Si       0.15586    0.98629    0.31023    1.000
    Si1398   Si       0.21169    0.99670    0.34013    1.000
    N1399    N        0.22550    0.96884    0.37033    1.000
    N1400    N        0.16857    0.00152    0.34901    1.000
    Si1401   Si       0.03882    0.96345    0.47123    1.000
    N1402    N        0.01407    0.96051    0.43435    1.000
    N1403    N        0.06945    0.99543    0.46466    1.000
    Si1404   Si       0.01110    0.99841    0.41590    1.000
    N1405    N        0.11318    0.98570    0.40185    1.000
    N1406    N        0.03689    0.00520    0.38108    1.000
    Si1407   Si       0.10849    0.00419    0.49791    1.000
    Si1408   Si       0.13692    0.96109    0.42875    1.000
    N1409    N        0.13077    0.00513    0.45830    1.000
    N1410    N        0.18029    0.97462    0.42691    1.000
    Si1411   Si       0.20218    0.98856    0.46006    1.000
    Si1412   Si       0.19315    0.95063    0.39354    1.000
    N1413    N        0.06775    0.97124    0.56991    1.000
    N1414    N        0.00848    0.97126    0.59993    1.000
    Si1415   Si       0.10640    0.95463    0.55827    1.000
    N1416    N        0.01353    0.98777    0.49857    1.000
    N1417    N        0.20064    0.98362    0.61884    1.000
    N1418    N        0.11646    0.96731    0.51888    1.000
    Si1419   Si       0.21601    0.97759    0.52931    1.000
    N1420    N        0.13604    0.97501    0.58561    1.000
    Si1421   Si       0.17608    0.95962    0.59083    1.000
    Si1422   Si       0.12011    0.00693    0.60715    1.000
    N1423    N        0.18612    0.97117    0.49651    1.000
    N1424    N        0.20878    0.95035    0.56205    1.000
    N1425    N        0.09736    0.99636    0.64309    1.000
    Si1426   Si       0.00493    0.98783    0.64078    1.000
    Si1427   Si       0.00716    0.95199    0.69332    1.000
    Si1428   Si       0.07331    0.96259    0.65996    1.000
    Si1429   Si       0.09024    0.97106    0.73623    1.000
    N1430    N        0.03505    0.97983    0.67178    1.000
    N1431    N        0.09077    0.95054    0.69795    1.000
    N1432    N        0.21086    0.94881    0.68386    1.000
    N1433    N        0.11796    0.00696    0.73986    1.000
    Si1434   Si       0.21836    0.98654    0.65954    1.000
    Si1435   Si       0.03899    0.98225    0.79424    1.000
    N1436    N        0.99778    0.96042    0.85928    1.000
    Si1437   Si       0.07686    0.99147    0.86084    1.000
    N1438    N        0.05155    0.98657    0.75279    1.000
    N1439    N        0.10841    0.96041    0.86159    1.000
    N1440    N        0.99644    0.99071    0.79713    1.000
    N1441    N        0.06049    0.00412    0.82487    1.000
    Si1442   Si       0.18049    0.99214    0.81217    1.000
    N1443    N        0.22328    0.98023    0.81766    1.000
    N1444    N        0.15574    0.95643    0.80404    1.000
    N1445    N        0.16276    0.00571    0.85023    1.000
    Si1446   Si       0.01621    0.95986    0.89816    1.000
    N1447    N        0.06278    0.97994    0.97394    1.000
    N1448    N        0.05848    0.97459    0.89818    1.000
    Si1449   Si       0.04779    0.99460    0.93645    1.000
    N1450    N        0.00390    0.98590    0.92960    1.000
    Si1451   Si       0.14457    0.98060    0.95362    1.000
    Si1452   Si       0.18280    0.98991    0.88630    1.000
    N1453    N        0.16401    0.96150    0.98712    1.000
    N1454    N        0.17359    0.00078    0.92539    1.000
    N1455    N        0.22333    0.00470    0.88105    1.000
    Si1456   Si       0.27081    0.04581    0.04938    1.000
    Si1457   Si       0.32602    0.04772    0.09629    1.000
    N1458    N        0.30114    0.02465    0.06907    1.000
    N1459    N        0.26659    0.02708    0.00831    1.000
    N1460    N        0.35789    0.06116    0.00786    1.000
    N1461    N        0.36461    0.05682    0.07631    1.000
    Si1462   Si       0.36876    0.03432    0.04058    1.000
    Si1463   Si       0.44535    0.03169    0.06106    1.000
    N1464    N        0.41005    0.01838    0.03841    1.000
    N1465    N        0.43268    0.06016    0.09400    1.000
    N1466    N        0.46224    0.06210    0.03537    1.000
    Si1467   Si       0.46699    0.06185    0.12000    1.000
    N1468    N        0.33615    0.02319    0.12895    1.000
    N1469    N        0.29655    0.04887    0.18068    1.000
    Si1470   Si       0.33359    0.04166    0.20514    1.000
    Si1471   Si       0.26238    0.01822    0.18593    1.000
    N1472    N        0.36431    0.01611    0.18756    1.000
    N1473    N        0.32660    0.02983    0.24640    1.000
    Si1474   Si       0.37648    0.02321    0.14731    1.000
    Si1475   Si       0.48758    0.01008    0.22971    1.000
    N1476    N        0.38757    0.06378    0.14347    1.000
    N1477    N        0.48385    0.05230    0.20869    1.000
    N1478    N        0.47140    0.02568    0.14181    1.000
    N1479    N        0.31169    0.02705    0.34544    1.000
    Si1480   Si       0.27674    0.03968    0.32192    1.000
    Si1481   Si       0.28461    0.02194    0.25290    1.000
    Si1482   Si       0.36046    0.01364    0.26764    1.000
    N1483    N        0.25412    0.05488    0.25016    1.000
    N1484    N        0.36782    0.04278    0.30172    1.000
    N1485    N        0.46316    0.01818    0.26599    1.000
    N1486    N        0.43524    0.05582    0.31672    1.000
    Si1487   Si       0.47200    0.03411    0.30627    1.000
    Si1488   Si       0.40291    0.02751    0.32345    1.000
    N1489    N        0.41632    0.01736    0.36487    1.000
    Si1490   Si       0.31786    0.02832    0.38803    1.000
    N1491    N        0.27180    0.04236    0.45581    1.000
    N1492    N        0.35422    0.02084    0.40849    1.000
    N1493    N        0.34590    0.06537    0.46278    1.000
    Si1494   Si       0.36991    0.03305    0.44665    1.000
    Si1495   Si       0.44379    0.03842    0.45857    1.000
    N1496    N        0.41069    0.04136    0.42980    1.000
    Si1497   Si       0.42320    0.05550    0.38995    1.000
    Si1498   Si       0.34360    0.03333    0.54189    1.000
    N1499    N        0.33820    0.03204    0.58566    1.000
    Si1500   Si       0.29936    0.04853    0.59719    1.000
    N1501    N        0.27248    0.02332    0.57092    1.000
    N1502    N        0.32308    0.06832    0.52530    1.000
    Si1503   Si       0.36830    0.01330    0.61191    1.000
    Si1504   Si       0.47227    0.02949    0.56401    1.000
    N1505    N        0.38679    0.02741    0.53553    1.000
    N1506    N        0.47557    0.01810    0.60409    1.000
    Si1507   Si       0.41319    0.06238    0.53302    1.000
    N1508    N        0.44359    0.06267    0.56187    1.000
    N1509    N        0.43432    0.06027    0.49444    1.000
    N1510    N        0.27989    0.06531    0.70400    1.000
    N1511    N        0.28595    0.03741    0.63767    1.000
    Si1512   Si       0.31469    0.04492    0.71703    1.000
    N1513    N        0.38568    0.04825    0.63043    1.000
    Si1514   Si       0.44862    0.03066    0.68840    1.000
    N1515    N        0.42516    0.06709    0.68494    1.000
    Si1516   Si       0.28846    0.04480    0.78859    1.000
    N1517    N        0.32005    0.03936    0.75829    1.000
    N1518    N        0.28326    0.01814    0.82303    1.000
    Si1519   Si       0.35961    0.05616    0.76878    1.000
    N1520    N        0.25036    0.04918    0.76548    1.000
    Si1521   Si       0.24255    0.01364    0.84241    1.000
    N1522    N        0.36544    0.04470    0.80985    1.000
    N1523    N        0.45178    0.02335    0.79167    1.000
    Si1524   Si       0.47138    0.06051    0.77982    1.000
    Si1525   Si       0.42187    0.01620    0.75961    1.000
    N1526    N        0.39986    0.05220    0.75211    1.000
    N1527    N        0.45809    0.03835    0.87080    1.000
    Si1528   Si       0.44847    0.00985    0.83668    1.000
    Si1529   Si       0.32666    0.03631    0.89734    1.000
    Si1530   Si       0.25467    0.02442    0.90703    1.000
    Si1531   Si       0.25911    0.05333    0.97585    1.000
    N1532    N        0.35540    0.04847    0.93023    1.000
    N1533    N        0.25692    0.05860    0.87708    1.000
    N1534    N        0.29666    0.01272    0.91642    1.000
    Si1535   Si       0.33873    0.06487    0.96772    1.000
    N1536    N        0.40196    0.01009    0.90302    1.000
    N1537    N        0.41012    0.02345    0.96993    1.000
    Si1538   Si       0.37955    0.01380    0.94090    1.000
    Si1539   Si       0.41973    0.05005    0.88966    1.000
    N1540    N        0.47363    0.05089    0.96663    1.000
    Si1541   Si       0.43097    0.06046    0.96487    1.000
    N1542    N        0.28410    0.08592    0.04135    1.000
    Si1543   Si       0.28619    0.10770    0.07888    1.000
    N1544    N        0.30373    0.08293    0.10908    1.000
    Si1545   Si       0.26650    0.11271    0.01072    1.000
    N1546    N        0.24159    0.10829    0.08347    1.000
    Si1547   Si       0.45926    0.10403    0.01015    1.000
    Si1548   Si       0.39468    0.07808    0.10107    1.000
    N1549    N        0.39388    0.12242    0.09232    1.000
    Si1550   Si       0.37869    0.09892    0.00046    1.000
    Si1551   Si       0.28839    0.08096    0.15147    1.000
    Si1552   Si       0.33110    0.11111    0.23405    1.000
    N1553    N        0.34994    0.08302    0.20715    1.000
    N1554    N        0.29237    0.11863    0.17146    1.000
    Si1555   Si       0.26506    0.11953    0.20378    1.000
    N1556    N        0.28779    0.11245    0.23996    1.000
    N1557    N        0.24593    0.07515    0.14222    1.000
    Si1558   Si       0.38147    0.09047    0.17833    1.000
    N1559    N        0.46815    0.09074    0.15238    1.000
    N1560    N        0.47134    0.12438    0.21517    1.000
    Si1561   Si       0.45980    0.08611    0.19469    1.000
    N1562    N        0.41652    0.09979    0.20113    1.000
    Si1563   Si       0.26786    0.09140    0.27265    1.000
    N1564    N        0.33744    0.09621    0.34193    1.000
    N1565    N        0.26090    0.09249    0.35368    1.000
    N1566    N        0.35023    0.10930    0.27364    1.000
    Si1567   Si       0.33982    0.07716    0.30249    1.000
    N1568    N        0.29617    0.06837    0.29810    1.000
    Si1569   Si       0.30235    0.10036    0.36983    1.000
    Si1570   Si       0.44183    0.09016    0.34142    1.000
    Si1571   Si       0.37272    0.11753    0.35826    1.000
    N1572    N        0.47027    0.11309    0.31632    1.000
    N1573    N        0.40348    0.08765    0.36755    1.000
    N1574    N        0.29401    0.10808    0.46326    1.000
    Si1575   Si       0.25509    0.12239    0.45223    1.000
    Si1576   Si       0.30444    0.06878    0.44616    1.000
    N1577    N        0.30381    0.06832    0.40186    1.000
    Si1578   Si       0.46578    0.08865    0.48508    1.000
    Si1579   Si       0.48663    0.08702    0.41013    1.000
    N1580    N        0.46267    0.07081    0.37717    1.000
    N1581    N        0.47260    0.07101    0.44611    1.000
    N1582    N        0.29420    0.09060    0.58526    1.000
    Si1583   Si       0.29026    0.09215    0.54173    1.000
    N1584    N        0.24768    0.07605    0.53738    1.000
    Si1585   Si       0.31729    0.11831    0.60913    1.000
    Si1586   Si       0.34894    0.09124    0.49802    1.000
    N1587    N        0.38403    0.09334    0.52769    1.000
    Si1588   Si       0.46426    0.09481    0.58417    1.000
    N1589    N        0.31583    0.09812    0.64863    1.000
    Si1590   Si       0.34903    0.10480    0.67640    1.000
    Si1591   Si       0.24949    0.08204    0.73186    1.000
    Si1592   Si       0.28139    0.07371    0.66207    1.000
    N1593    N        0.26826    0.11777    0.74433    1.000
    N1594    N        0.34685    0.07153    0.70299    1.000
    N1595    N        0.24210    0.09342    0.65810    1.000
    N1596    N        0.44386    0.09356    0.62228    1.000
    N1597    N        0.40974    0.11841    0.73104    1.000
    N1598    N        0.46321    0.07221    0.74014    1.000
    N1599    N        0.38196    0.11515    0.65032    1.000
    N1600    N        0.47860    0.12001    0.69487    1.000
    Si1601   Si       0.42318    0.07816    0.72625    1.000
    Si1602   Si       0.36830    0.12494    0.73677    1.000
    Si1603   Si       0.40923    0.08081    0.64543    1.000
    N1604    N        0.28647    0.08454    0.80835    1.000
    N1605    N        0.34862    0.09835    0.76611    1.000
    Si1606   Si       0.28310    0.08384    0.85294    1.000
    Si1607   Si       0.27504    0.11968    0.78810    1.000
    Si1608   Si       0.35694    0.07036    0.84300    1.000
    N1609    N        0.36023    0.11178    0.83252    1.000
    N1610    N        0.32076    0.06655    0.86694    1.000
    Si1611   Si       0.45669    0.12284    0.83527    1.000
    N1612    N        0.47405    0.08924    0.81153    1.000
    N1613    N        0.35885    0.10394    0.96048    1.000
    N1614    N        0.29753    0.07049    0.96626    1.000
    N1615    N        0.48219    0.11621    0.97189    1.000
    N1616    N        0.38553    0.07195    0.87672    1.000
    Si1617   Si       0.37627    0.09102    0.91824    1.000
    N1618    N        0.42048    0.09303    0.99136    1.000
    N1619    N        0.41781    0.07641    0.92767    1.000
    N1620    N        0.31056    0.14512    0.07198    1.000
    Si1621   Si       0.32950    0.15246    0.03182    1.000
    Si1622   Si       0.30470    0.18004    0.09751    1.000
    N1623    N        0.30621    0.13107    0.00094    1.000
    N1624    N        0.24030    0.14404    0.02643    1.000
    Si1625   Si       0.39860    0.14479    0.05575    1.000
    Si1626   Si       0.47136    0.14123    0.06110    1.000
    N1627    N        0.48499    0.13474    0.10083    1.000
    N1628    N        0.43616    0.13255    0.03871    1.000
    N1629    N        0.47281    0.18500    0.06055    1.000
    N1630    N        0.36697    0.13126    0.02772    1.000
    Si1631   Si       0.32795    0.14502    0.17125    1.000
    N1632    N        0.33703    0.15091    0.21500    1.000
    N1633    N        0.24883    0.16014    0.20051    1.000
    N1634    N        0.30993    0.17449    0.14244    1.000
    Si1635   Si       0.33348    0.18324    0.24331    1.000
    N1636    N        0.41637    0.17255    0.20645    1.000
    Si1637   Si       0.42997    0.13582    0.22341    1.000
    Si1638   Si       0.39300    0.14355    0.13060    1.000
    N1639    N        0.43532    0.14898    0.14566    1.000
    Si1640   Si       0.47392    0.13201    0.14313    1.000
    N1641    N        0.36369    0.12403    0.15654    1.000
    N1642    N        0.36450    0.17790    0.27546    1.000
    N1643    N        0.39318    0.13873    0.32683    1.000
    Si1644   Si       0.45264    0.14353    0.29131    1.000
    Si1645   Si       0.38131    0.13714    0.28432    1.000
    Si1646   Si       0.41662    0.17123    0.34433    1.000
    N1647    N        0.47583    0.17210    0.26466    1.000
    N1648    N        0.42056    0.13189    0.26598    1.000
    N1649    N        0.44411    0.18532    0.31587    1.000
    Si1650   Si       0.32984    0.16707    0.40360    1.000
    N1651    N        0.32433    0.16547    0.44675    1.000
    N1652    N        0.26174    0.15667    0.47754    1.000
    N1653    N        0.30096    0.14125    0.38531    1.000
    Si1654   Si       0.26015    0.15582    0.38529    1.000
    Si1655   Si       0.30586    0.14748    0.48261    1.000
    Si1656   Si       0.36305    0.16745    0.46804    1.000
    N1657    N        0.35087    0.13626    0.49616    1.000
    Si1658   Si       0.40038    0.17007    0.40984    1.000
    Si1659   Si       0.43818    0.16456    0.46892    1.000
    Si1660   Si       0.47715    0.16629    0.40055    1.000
    N1661    N        0.47253    0.17375    0.44215    1.000
    N1662    N        0.43480    0.16413    0.38443    1.000
    N1663    N        0.36762    0.14586    0.39120    1.000
    N1664    N        0.45175    0.13024    0.48831    1.000
    N1665    N        0.40160    0.15495    0.44961    1.000
    Si1666   Si       0.30925    0.16784    0.54881    1.000
    Si1667   Si       0.25383    0.17120    0.51730    1.000
    N1668    N        0.34266    0.14156    0.56940    1.000
    N1669    N        0.26564    0.17896    0.56029    1.000
    Si1670   Si       0.34610    0.17518    0.60108    1.000
    N1671    N        0.29267    0.13145    0.52701    1.000
    Si1672   Si       0.37080    0.13454    0.53674    1.000
    Si1673   Si       0.48134    0.13754    0.52040    1.000
    N1674    N        0.40053    0.16459    0.54224    1.000
    Si1675   Si       0.43711    0.16577    0.57032    1.000
    N1676    N        0.43294    0.16631    0.61231    1.000
    N1677    N        0.46155    0.13201    0.56035    1.000
    N1678    N        0.31325    0.15748    0.62396    1.000
    N1679    N        0.34671    0.13909    0.70256    1.000
    Si1680   Si       0.26744    0.15528    0.72236    1.000
    N1681    N        0.26387    0.15657    0.67841    1.000
    N1682    N        0.30125    0.17786    0.73852    1.000
    Si1683   Si       0.29313    0.17876    0.65468    1.000
    Si1684   Si       0.33626    0.17908    0.71148    1.000
    Si1685   Si       0.40057    0.15448    0.63979    1.000
    Si1686   Si       0.44300    0.13959    0.70796    1.000
    N1687    N        0.45025    0.16513    0.74373    1.000
    Si1688   Si       0.45871    0.17801    0.64460    1.000
    N1689    N        0.42783    0.16382    0.67388    1.000
    N1690    N        0.30907    0.14593    0.79610    1.000
    Si1691   Si       0.34778    0.13146    0.79698    1.000
    N1692    N        0.27903    0.12615    0.86674    1.000
    N1693    N        0.37519    0.15418    0.77076    1.000
    N1694    N        0.43133    0.14502    0.80647    1.000
    Si1695   Si       0.41920    0.14567    0.76704    1.000
    N1696    N        0.38215    0.17470    0.84261    1.000
    Si1697   Si       0.38646    0.13385    0.86163    1.000
    Si1698   Si       0.42111    0.18295    0.82449    1.000
    N1699    N        0.42928    0.12870    0.87132    1.000
    N1700    N        0.35179    0.16932    0.95934    1.000
    Si1701   Si       0.32560    0.13607    0.96156    1.000
    Si1702   Si       0.26096    0.16028    0.93122    1.000
    N1703    N        0.29999    0.14319    0.92715    1.000
    Si1704   Si       0.31424    0.14614    0.88400    1.000
    N1705    N        0.25272    0.17675    0.96913    1.000
    N1706    N        0.36064    0.13641    0.89633    1.000
    Si1707   Si       0.37328    0.16978    0.92227    1.000
    Si1708   Si       0.44222    0.16161    0.89613    1.000
    N1709    N        0.48124    0.15230    0.91036    1.000
    N1710    N        0.41544    0.17444    0.92701    1.000
    Si1711   Si       0.48916    0.15309    0.95215    1.000
    N1712    N        0.33946    0.20899    0.09134    1.000
    N1713    N        0.26136    0.19285    0.09709    1.000
    N1714    N        0.34079    0.19333    0.02350    1.000
    Si1715   Si       0.36532    0.21278    0.05616    1.000
    N1716    N        0.24040    0.21484    0.03390    1.000
    N1717    N        0.40099    0.18722    0.06267    1.000
    Si1718   Si       0.43864    0.20967    0.06131    1.000
    N1719    N        0.44750    0.23518    0.02638    1.000
    N1720    N        0.44778    0.23971    0.09415    1.000
    Si1721   Si       0.24060    0.22304    0.12592    1.000
    Si1722   Si       0.30151    0.21317    0.15777    1.000
    N1723    N        0.27644    0.24231    0.13757    1.000
    Si1724   Si       0.32726    0.23964    0.20536    1.000
    Si1725   Si       0.36275    0.21948    0.12789    1.000
    N1726    N        0.33913    0.23314    0.16368    1.000
    N1727    N        0.29080    0.21561    0.19985    1.000
    N1728    N        0.35153    0.22387    0.23678    1.000
    Si1729   Si       0.26686    0.18936    0.22672    1.000
    N1730    N        0.38612    0.18567    0.13840    1.000
    N1731    N        0.43270    0.22406    0.16285    1.000
    Si1732   Si       0.42009    0.18540    0.16640    1.000
    N1733    N        0.27662    0.20962    0.33625    1.000
    Si1734   Si       0.29147    0.21733    0.29638    1.000
    N1735    N        0.33249    0.23408    0.29988    1.000
    N1736    N        0.29371    0.19011    0.26089    1.000
    N1737    N        0.25973    0.24805    0.28472    1.000
    Si1738   Si       0.36731    0.22124    0.27733    1.000
    N1739    N        0.39179    0.20592    0.34645    1.000
    Si1740   Si       0.47125    0.20804    0.28932    1.000
    Si1741   Si       0.49010    0.23026    0.35311    1.000
    Si1742   Si       0.41138    0.24252    0.32976    1.000
    Si1743   Si       0.29413    0.22077    0.37347    1.000
    N1744    N        0.33362    0.20593    0.38227    1.000
    N1745    N        0.26879    0.19736    0.40091    1.000
    Si1746   Si       0.32317    0.22390    0.49145    1.000
    Si1747   Si       0.25498    0.23750    0.47732    1.000
    N1748    N        0.36133    0.21095    0.47448    1.000
    N1749    N        0.29691    0.23745    0.45956    1.000
    Si1750   Si       0.44456    0.23975    0.47523    1.000
    N1751    N        0.48590    0.23447    0.46628    1.000
    N1752    N        0.42756    0.20243    0.48931    1.000
    N1753    N        0.39390    0.21230    0.41307    1.000
    Si1754   Si       0.37171    0.22828    0.37835    1.000
    Si1755   Si       0.38127    0.23892    0.44767    1.000
    N1756    N        0.32232    0.20508    0.57782    1.000
    Si1757   Si       0.27858    0.21020    0.58739    1.000
    Si1758   Si       0.34210    0.23801    0.55773    1.000
    N1759    N        0.30954    0.18819    0.50955    1.000
    N1760    N        0.44966    0.20435    0.55355    1.000
    Si1761   Si       0.41297    0.20461    0.52983    1.000
    N1762    N        0.38369    0.23159    0.54672    1.000
    N1763    N        0.27136    0.21029    0.63157    1.000
    N1764    N        0.31677    0.20250    0.68121    1.000
    Si1765   Si       0.24962    0.23899    0.65472    1.000
    N1766    N        0.36842    0.20441    0.72655    1.000
    N1767    N        0.37390    0.18861    0.63058    1.000
    N1768    N        0.46747    0.21926    0.64139    1.000
    Si1769   Si       0.38359    0.23096    0.64281    1.000
    N1770    N        0.33837    0.21003    0.78716    1.000
    N1771    N        0.26661    0.20380    0.79110    1.000
    Si1772   Si       0.35544    0.20322    0.86280    1.000
    N1773    N        0.25750    0.24117    0.85102    1.000
    Si1774   Si       0.26290    0.24330    0.80881    1.000
    N1775    N        0.31535    0.18702    0.86832    1.000
    N1776    N        0.35822    0.24138    0.84144    1.000
    Si1777   Si       0.30289    0.18524    0.78101    1.000
    Si1778   Si       0.37607    0.19692    0.76938    1.000
    N1779    N        0.41347    0.20793    0.78816    1.000
    Si1780   Si       0.47211    0.19563    0.76387    1.000
    Si1781   Si       0.48206    0.21047    0.84779    1.000
    N1782    N        0.44658    0.18972    0.86141    1.000
    N1783    N        0.46381    0.23708    0.75017    1.000
    N1784    N        0.48189    0.20006    0.80564    1.000
    N1785    N        0.32569    0.22969    0.96246    1.000
    N1786    N        0.25712    0.19554    0.90291    1.000
    Si1787   Si       0.35580    0.20358    0.98391    1.000
    Si1788   Si       0.28424    0.21726    0.87723    1.000
    Si1789   Si       0.33842    0.24127    0.92224    1.000
    N1790    N        0.36729    0.21241    0.90446    1.000
    N1791    N        0.39800    0.21290    0.98428    1.000
    N1792    N        0.43833    0.23949    0.93715    1.000
    Si1793   Si       0.43288    0.19941    0.95730    1.000
    N1794    N        0.47355    0.19091    0.96905    1.000
    N1795    N        0.27893    0.27288    0.00752    1.000
    Si1796   Si       0.36261    0.28815    0.03762    1.000
    N1797    N        0.24465    0.28887    0.10279    1.000
    Si1798   Si       0.23963    0.25328    0.01119    1.000
    N1799    N        0.34387    0.28580    0.99695    1.000
    Si1800   Si       0.48371    0.26336    0.09058    1.000
    N1801    N        0.38079    0.25029    0.04157    1.000
    Si1802   Si       0.40929    0.24751    0.00720    1.000
    Si1803   Si       0.28030    0.28388    0.12808    1.000
    N1804    N        0.32243    0.29072    0.12665    1.000
    Si1805   Si       0.35241    0.27848    0.15701    1.000
    N1806    N        0.32923    0.28206    0.19867    1.000
    N1807    N        0.48698    0.25037    0.19968    1.000
    N1808    N        0.38299    0.25892    0.12929    1.000
    N1809    N        0.44196    0.28674    0.15647    1.000
    Si1810   Si       0.42586    0.25315    0.12928    1.000
    N1811    N        0.41850    0.27104    0.21956    1.000
    Si1812   Si       0.44522    0.25794    0.18908    1.000
    Si1813   Si       0.33510    0.27710    0.30207    1.000
    Si1814   Si       0.27540    0.28647    0.28838    1.000
    N1815    N        0.29901    0.28434    0.32532    1.000
    N1816    N        0.31058    0.28886    0.26534    1.000
    Si1817   Si       0.28430    0.29671    0.36502    1.000
    N1818    N        0.45156    0.25278    0.34467    1.000
    Si1819   Si       0.46901    0.29448    0.35467    1.000
    N1820    N        0.38540    0.26350    0.35722    1.000
    Si1821   Si       0.42629    0.26991    0.26269    1.000
    N1822    N        0.46320    0.24437    0.26715    1.000
    N1823    N        0.40112    0.24680    0.28726    1.000
    N1824    N        0.29331    0.26039    0.38835    1.000
    N1825    N        0.35342    0.26482    0.42678    1.000
    Si1826   Si       0.31066    0.26562    0.42797    1.000
    N1827    N        0.41277    0.26425    0.46360    1.000
    Si1828   Si       0.28209    0.26950    0.53917    1.000
    N1829    N        0.35361    0.27622    0.57928    1.000
    N1830    N        0.25734    0.27236    0.50392    1.000
    N1831    N        0.32065    0.25339    0.52424    1.000
    N1832    N        0.26496    0.24722    0.57270    1.000
    Si1833   Si       0.34694    0.28949    0.61883    1.000
    N1834    N        0.47900    0.25468    0.58710    1.000
    Si1835   Si       0.39808    0.26511    0.57232    1.000
    Si1836   Si       0.47169    0.29082    0.56533    1.000
    N1837    N        0.42756    0.29233    0.55765    1.000
    Si1838   Si       0.44945    0.25303    0.62266    1.000
    N1839    N        0.49470    0.28838    0.52676    1.000
    N1840    N        0.40896    0.24618    0.60990    1.000
    N1841    N        0.33940    0.26466    0.71330    1.000
    N1842    N        0.28216    0.26446    0.66860    1.000
    N1843    N        0.34577    0.25205    0.64383    1.000
    Si1844   Si       0.31885    0.24511    0.67839    1.000
    Si1845   Si       0.42613    0.28081    0.70322    1.000
    N1846    N        0.46971    0.29017    0.70608    1.000
    N1847    N        0.40500    0.26956    0.74193    1.000
    N1848    N        0.45081    0.29276    0.63610    1.000
    Si1849   Si       0.37866    0.24479    0.71721    1.000
    N1850    N        0.40409    0.24551    0.68082    1.000
    N1851    N        0.29729    0.26876    0.80738    1.000
    N1852    N        0.35096    0.28525    0.78619    1.000
    Si1853   Si       0.33706    0.24813    0.80441    1.000
    N1854    N        0.41807    0.27395    0.80527    1.000
    Si1855   Si       0.39150    0.27072    0.84031    1.000
    N1856    N        0.48113    0.25159    0.86101    1.000
    Si1857   Si       0.42769    0.24701    0.77307    1.000
    N1858    N        0.24668    0.28442    0.90716    1.000
    Si1859   Si       0.29191    0.29008    0.90140    1.000
    Si1860   Si       0.31025    0.26555    0.97799    1.000
    N1861    N        0.30448    0.29387    0.94325    1.000
    N1862    N        0.30748    0.25149    0.89521    1.000
    Si1863   Si       0.45216    0.28236    0.87184    1.000
    N1864    N        0.41439    0.26045    0.87633    1.000
    Si1865   Si       0.37203    0.29518    0.96355    1.000
    N1866    N        0.40864    0.28746    0.98724    1.000
    N1867    N        0.37128    0.26804    0.93028    1.000
    Si1868   Si       0.40277    0.24382    0.91361    1.000
    Si1869   Si       0.47489    0.26302    0.93728    1.000
    N1870    N        0.46421    0.29718    0.91121    1.000
    N1871    N        0.26400    0.33168    0.04200    1.000
    Si1872   Si       0.33191    0.32189    0.09775    1.000
    N1873    N        0.29565    0.34792    0.10488    1.000
    Si1874   Si       0.29829    0.31094    0.02261    1.000
    N1875    N        0.32676    0.30873    0.05587    1.000
    Si1876   Si       0.27880    0.36403    0.06881    1.000
    N1877    N        0.36852    0.34274    0.10560    1.000
    N1878    N        0.39375    0.31994    0.04460    1.000
    N1879    N        0.46041    0.32343    0.02443    1.000
    Si1880   Si       0.47061    0.33756    0.06496    1.000
    Si1881   Si       0.42102    0.32377    0.01058    1.000
    Si1882   Si       0.39676    0.35394    0.07130    1.000
    N1883    N        0.43784    0.36323    0.08118    1.000
    N1884    N        0.48104    0.30716    0.09121    1.000
    N1885    N        0.24196    0.34946    0.20189    1.000
    Si1886   Si       0.27079    0.35284    0.13906    1.000
    Si1887   Si       0.32894    0.31089    0.23152    1.000
    N1888    N        0.31198    0.35035    0.23235    1.000
    N1889    N        0.26656    0.31180    0.15752    1.000
    Si1890   Si       0.38671    0.34985    0.14392    1.000
    N1891    N        0.37124    0.31494    0.23981    1.000
    Si1892   Si       0.45127    0.32826    0.16681    1.000
    N1893    N        0.48880    0.30639    0.23963    1.000
    N1894    N        0.43129    0.33812    0.20385    1.000
    N1895    N        0.37643    0.31493    0.16869    1.000
    Si1896   Si       0.39914    0.30941    0.20610    1.000
    N1897    N        0.42899    0.35669    0.14391    1.000
    N1898    N        0.29962    0.33828    0.36410    1.000
    N1899    N        0.24358    0.31286    0.27584    1.000
    Si1900   Si       0.24281    0.35476    0.28473    1.000
    N1901    N        0.24112    0.30215    0.36563    1.000
    Si1902   Si       0.38831    0.32994    0.27595    1.000
    N1903    N        0.42827    0.31943    0.34772    1.000
    N1904    N        0.42959    0.31471    0.27243    1.000
    Si1905   Si       0.46702    0.33771    0.25969    1.000
    Si1906   Si       0.44367    0.35091    0.37280    1.000
    N1907    N        0.36693    0.30638    0.30921    1.000
    Si1908   Si       0.38664    0.30622    0.34812    1.000
    Si1909   Si       0.33821    0.35898    0.37317    1.000
    N1910    N        0.31204    0.31091    0.43110    1.000
    Si1911   Si       0.28454    0.34314    0.44350    1.000
    N1912    N        0.27798    0.33324    0.48423    1.000
    Si1913   Si       0.35632    0.30857    0.41887    1.000
    N1914    N        0.24717    0.35963    0.42874    1.000
    N1915    N        0.36517    0.32642    0.38028    1.000
    N1916    N        0.47010    0.32229    0.39332    1.000
    Si1917   Si       0.37683    0.35691    0.48569    1.000
    N1918    N        0.45794    0.31844    0.46895    1.000
    N1919    N        0.38598    0.33060    0.44242    1.000
    Si1920   Si       0.48174    0.33089    0.43336    1.000
    Si1921   Si       0.41509    0.30654    0.46745    1.000
    Si1922   Si       0.30222    0.33322    0.58944    1.000
    N1923    N        0.28624    0.30961    0.55590    1.000
    Si1924   Si       0.24892    0.32726    0.56578    1.000
    N1925    N        0.33632    0.35576    0.58100    1.000
    N1926    N        0.26432    0.35228    0.59692    1.000
    N1927    N        0.30909    0.30901    0.62458    1.000
    N1928    N        0.46276    0.34301    0.53297    1.000
    Si1929   Si       0.42098    0.33196    0.53990    1.000
    N1930    N        0.40021    0.32638    0.50346    1.000
    Si1931   Si       0.48811    0.32413    0.50250    1.000
    Si1932   Si       0.37429    0.35442    0.60070    1.000
    Si1933   Si       0.48118    0.35908    0.56692    1.000
    N1934    N        0.40643    0.35970    0.56948    1.000
    N1935    N        0.37900    0.31754    0.62288    1.000
    N1936    N        0.31549    0.32718    0.68862    1.000
    N1937    N        0.25135    0.33360    0.66448    1.000
    Si1938   Si       0.28665    0.30768    0.66193    1.000
    Si1939   Si       0.32708    0.30475    0.72413    1.000
    N1940    N        0.36381    0.32590    0.73566    1.000
    N1941    N        0.29574    0.30824    0.75191    1.000
    N1942    N        0.43122    0.35913    0.62976    1.000
    Si1943   Si       0.38600    0.34902    0.70629    1.000
    N1944    N        0.40769    0.31698    0.68546    1.000
    Si1945   Si       0.41700    0.32067    0.64480    1.000
    Si1946   Si       0.48925    0.33149    0.69766    1.000
    N1947    N        0.31309    0.34343    0.81467    1.000
    Si1948   Si       0.33839    0.33523    0.85026    1.000
    N1949    N        0.24867    0.33274    0.79568    1.000
    Si1950   Si       0.25875    0.32955    0.75176    1.000
    Si1951   Si       0.31158    0.30565    0.79226    1.000
    N1952    N        0.37423    0.31043    0.85194    1.000
    N1953    N        0.45420    0.31626    0.84630    1.000
    N1954    N        0.41227    0.33337    0.78243    1.000
    Si1955   Si       0.47338    0.35284    0.85589    1.000
    Si1956   Si       0.44177    0.31063    0.80504    1.000
    N1957    N        0.47563    0.31067    0.78102    1.000
    Si1958   Si       0.38560    0.30256    0.76717    1.000
    N1959    N        0.31110    0.32293    0.88312    1.000
    N1960    N        0.36061    0.33460    0.95159    1.000
    Si1961   Si       0.31599    0.33509    0.95151    1.000
    N1962    N        0.30990    0.34477    0.99387    1.000
    Si1963   Si       0.48730    0.32244    0.99101    1.000
    N1964    N        0.40848    0.36153    0.99093    1.000
    N1965    N        0.46636    0.34782    0.96103    1.000
    Si1966   Si       0.47820    0.33580    0.92183    1.000
    N1967    N        0.31142    0.38503    0.05058    1.000
    Si1968   Si       0.34180    0.40832    0.07196    1.000
    Si1969   Si       0.30944    0.38568    0.00759    1.000
    N1970    N        0.24335    0.38858    0.07095    1.000
    N1971    N        0.26654    0.39757    0.00650    1.000
    N1972    N        0.37947    0.39182    0.05673    1.000
    N1973    N        0.46730    0.39584    0.01123    1.000
    Si1974   Si       0.44946    0.38361    0.11807    1.000
    Si1975   Si       0.37641    0.42164    0.02352    1.000
    Si1976   Si       0.28145    0.36887    0.20694    1.000
    Si1977   Si       0.32645    0.40337    0.15190    1.000
    N1978    N        0.29492    0.37638    0.16607    1.000
    N1979    N        0.27789    0.40807    0.22409    1.000
    N1980    N        0.48208    0.38891    0.19682    1.000
    N1981    N        0.41764    0.41512    0.19514    1.000
    Si1982   Si       0.44142    0.38167    0.21027    1.000
    N1983    N        0.36689    0.38863    0.15553    1.000
    N1984    N        0.42967    0.42152    0.12481    1.000
    N1985    N        0.32756    0.38990    0.34341    1.000
    N1986    N        0.26173    0.40049    0.35279    1.000
    Si1987   Si       0.28834    0.37161    0.33557    1.000
    N1988    N        0.28299    0.37701    0.29003    1.000
    Si1989   Si       0.32078    0.37599    0.26676    1.000
    Si1990   Si       0.26418    0.41003    0.26313    1.000
    N1991    N        0.33159    0.42032    0.26445    1.000
    N1992    N        0.36635    0.36970    0.27686    1.000
    Si1993   Si       0.37414    0.41190    0.27898    1.000
    N1994    N        0.47022    0.37345    0.34377    1.000
    N1995    N        0.44477    0.38084    0.25301    1.000
    Si1996   Si       0.46744    0.41651    0.34183    1.000
    Si1997   Si       0.44402    0.41938    0.27342    1.000
    N1998    N        0.30674    0.37840    0.45611    1.000
    Si1999   Si       0.32678    0.40790    0.43393    1.000
    N2000    N        0.34997    0.38042    0.40870    1.000
    Si2001   Si       0.30428    0.36275    0.49759    1.000
    Si2002   Si       0.38923    0.37071    0.42455    1.000
    N2003    N        0.39073    0.39090    0.46363    1.000
    N2004    N        0.42585    0.37776    0.40156    1.000
    Si2005   Si       0.44645    0.41613    0.41648    1.000
    N2006    N        0.28911    0.38112    0.53592    1.000
    Si2007   Si       0.32874    0.38494    0.54945    1.000
    Si2008   Si       0.26240    0.41350    0.54845    1.000
    N2009    N        0.34577    0.36518    0.51297    1.000
    Si2010   Si       0.42434    0.39042    0.59615    1.000
    N2011    N        0.46814    0.39392    0.58716    1.000
    N2012    N        0.37968    0.39713    0.61462    1.000
    Si2013   Si       0.25834    0.36643    0.63617    1.000
    Si2014   Si       0.32174    0.36901    0.68056    1.000
    N2015    N        0.31998    0.39912    0.71406    1.000
    N2016    N        0.29328    0.38450    0.65318    1.000
    Si2017   Si       0.28036    0.40865    0.73276    1.000
    N2018    N        0.24919    0.41642    0.70350    1.000
    Si2019   Si       0.36292    0.41047    0.72015    1.000
    N2020    N        0.39818    0.38408    0.73123    1.000
    N2021    N        0.36668    0.37346    0.67708    1.000
    N2022    N        0.46134    0.36511    0.69475    1.000
    Si2023   Si       0.38770    0.40475    0.65574    1.000
    Si2024   Si       0.44107    0.39361    0.71914    1.000
    N2025    N        0.43014    0.41643    0.65868    1.000
    Si2026   Si       0.46107    0.38178    0.65552    1.000
    N2027    N        0.26056    0.40469    0.81531    1.000
    N2028    N        0.27316    0.37193    0.75470    1.000
    N2029    N        0.34172    0.37833    0.86624    1.000
    Si2030   Si       0.27507    0.36693    0.79929    1.000
    N2031    N        0.26053    0.36324    0.86837    1.000
    Si2032   Si       0.32733    0.42115    0.85869    1.000
    N2033    N        0.39864    0.40346    0.80256    1.000
    N2034    N        0.46292    0.38409    0.82838    1.000
    N2035    N        0.45152    0.38564    0.76019    1.000
    Si2036   Si       0.41174    0.37588    0.77292    1.000
    Si2037   Si       0.42785    0.41056    0.83664    1.000
    Si2038   Si       0.48039    0.39655    0.78959    1.000
    Si2039   Si       0.27879    0.40828    0.92471    1.000
    N2040    N        0.29691    0.36972    0.92984    1.000
    N2041    N        0.34964    0.40307    0.99419    1.000
    N2042    N        0.24020    0.41338    0.94225    1.000
    N2043    N        0.28924    0.41805    0.88112    1.000
    Si2044   Si       0.30091    0.36731    0.88478    1.000
    N2045    N        0.41367    0.40491    0.87603    1.000
    Si2046   Si       0.37283    0.37188    0.96800    1.000
    N2047    N        0.43505    0.41003    0.94557    1.000
    Si2048   Si       0.37375    0.40351    0.88966    1.000
    N2049    N        0.36730    0.39663    0.93143    1.000
    Si2050   Si       0.44792    0.40653    0.90513    1.000
    Si2051   Si       0.44561    0.38120    0.97695    1.000
    N2052    N        0.46281    0.36748    0.89513    1.000
    N2053    N        0.35124    0.44547    0.04912    1.000
    N2054    N        0.32276    0.42004    0.11026    1.000
    N2055    N        0.41217    0.43628    0.00442    1.000
    Si2056   Si       0.43981    0.45559    0.10325    1.000
    Si2057   Si       0.45401    0.43581    0.02076    1.000
    N2058    N        0.45166    0.43858    0.06458    1.000
    N2059    N        0.48168    0.46635    0.00441    1.000
    N2060    N        0.47109    0.48021    0.12139    1.000
    Si2061   Si       0.30918    0.45857    0.12503    1.000
    N2062    N        0.26560    0.46823    0.12574    1.000
    N2063    N        0.31360    0.44489    0.17011    1.000
    Si2064   Si       0.34585    0.47246    0.18076    1.000
    Si2065   Si       0.28222    0.44355    0.20018    1.000
    N2066    N        0.36288    0.46579    0.21979    1.000
    N2067    N        0.29544    0.47715    0.22547    1.000
    N2068    N        0.24136    0.45059    0.18810    1.000
    Si2069   Si       0.40483    0.45092    0.21881    1.000
    N2070    N        0.37931    0.46128    0.15531    1.000
    Si2071   Si       0.47556    0.47447    0.22620    1.000
    Si2072   Si       0.39682    0.42084    0.15569    1.000
    N2073    N        0.30031    0.45470    0.34771    1.000
    N2074    N        0.25842    0.44985    0.27820    1.000
    Si2075   Si       0.33705    0.43273    0.34459    1.000
    Si2076   Si       0.33126    0.46128    0.25003    1.000
    Si2077   Si       0.27388    0.43573    0.37441    1.000
    N2078    N        0.36939    0.43596    0.31570    1.000
    Si2079   Si       0.40493    0.46310    0.31576    1.000
    N2080    N        0.47264    0.45113    0.26263    1.000
    N2081    N        0.43964    0.43456    0.31503    1.000
    N2082    N        0.40545    0.43337    0.25964    1.000
    Si2083   Si       0.45583    0.47670    0.36745    1.000
    N2084    N        0.41210    0.47840    0.35594    1.000
    N2085    N        0.24214    0.46234    0.38237    1.000
    Si2086   Si       0.33094    0.46399    0.41168    1.000
    N2087    N        0.34690    0.44408    0.44855    1.000
    N2088    N        0.35828    0.44706    0.37963    1.000
    N2089    N        0.29820    0.42835    0.41027    1.000
    N2090    N        0.46690    0.43215    0.45298    1.000
    N2091    N        0.40648    0.45795    0.48694    1.000
    N2092    N        0.40943    0.44232    0.42074    1.000
    N2093    N        0.46079    0.43398    0.38023    1.000
    Si2094   Si       0.39213    0.46878    0.39198    1.000
    Si2095   Si       0.44912    0.45917    0.48138    1.000
    Si2096   Si       0.38542    0.43455    0.45782    1.000
    N2097    N        0.28061    0.44728    0.52929    1.000
    Si2098   Si       0.27412    0.46360    0.60998    1.000
    Si2099   Si       0.31571    0.46207    0.55168    1.000
    N2100    N        0.26523    0.42755    0.58962    1.000
    N2101    N        0.33824    0.42463    0.56161    1.000
    N2102    N        0.34978    0.47781    0.52799    1.000
    N2103    N        0.47095    0.46180    0.59103    1.000
    N2104    N        0.46964    0.45109    0.52298    1.000
    Si2105   Si       0.44536    0.45762    0.55726    1.000
    Si2106   Si       0.37493    0.43114    0.58528    1.000
    N2107    N        0.37461    0.46995    0.60558    1.000
    N2108    N        0.41559    0.42766    0.57058    1.000
    N2109    N        0.28304    0.45549    0.65116    1.000
    Si2110   Si       0.26724    0.41866    0.66551    1.000
    N2111    N        0.37629    0.43571    0.68626    1.000
    N2112    N        0.45505    0.43387    0.71502    1.000
    Si2113   Si       0.44487    0.45351    0.67734    1.000
    N2114    N        0.47880    0.47837    0.66549    1.000
    N2115    N        0.26974    0.44693    0.75864    1.000
    Si2116   Si       0.25827    0.44766    0.79986    1.000
    N2117    N        0.33700    0.43882    0.82090    1.000
    N2118    N        0.28163    0.46716    0.83227    1.000
    N2119    N        0.35834    0.43894    0.75327    1.000
    Si2120   Si       0.26698    0.45455    0.87186    1.000
    Si2121   Si       0.37160    0.43673    0.79338    1.000
    N2122    N        0.44974    0.44748    0.83967    1.000
    N2123    N        0.39594    0.47135    0.80168    1.000
    Si2124   Si       0.48880    0.45294    0.85965    1.000
    Si2125   Si       0.24488    0.42939    0.98313    1.000
    N2126    N        0.35678    0.44334    0.88351    1.000
    N2127    N        0.30540    0.43445    0.94902    1.000
    N2128    N        0.25414    0.47073    0.97419    1.000
    Si2129   Si       0.28704    0.47401    0.94634    1.000
    Si2130   Si       0.34569    0.42700    0.95489    1.000
    N2131    N        0.26650    0.47590    0.90952    1.000
    Si2132   Si       0.41513    0.44607    0.96373    1.000
    N2133    N        0.37396    0.45965    0.95460    1.000
    N2134    N        0.48248    0.43415    0.89763    1.000
    Si2135   Si       0.26457    0.50397    0.05038    1.000
    N2136    N        0.32848    0.49066    0.10298    1.000
    N2137    N        0.30365    0.49198    0.03811    1.000
    N2138    N        0.25756    0.52460    0.01156    1.000
    Si2139   Si       0.34074    0.48593    0.06084    1.000
    Si2140   Si       0.30104    0.51385    0.00135    1.000
    N2141    N        0.25809    0.53893    0.07228    1.000
    N2142    N        0.37110    0.51507    0.04801    1.000
    Si2143   Si       0.40866    0.51848    0.06922    1.000
    N2144    N        0.44958    0.51213    0.05461    1.000
    Si2145   Si       0.47777    0.50434    0.08522    1.000
    N2146    N        0.40662    0.48567    0.09729    1.000
    Si2147   Si       0.46800    0.53713    0.02321    1.000
    Si2148   Si       0.24071    0.48343    0.15919    1.000
    N2149    N        0.25548    0.51962    0.17651    1.000
    Si2150   Si       0.32757    0.52621    0.13002    1.000
    N2151    N        0.32259    0.50935    0.17104    1.000
    Si2152   Si       0.29241    0.51643    0.20137    1.000
    N2153    N        0.42238    0.51739    0.15649    1.000
    Si2154   Si       0.39028    0.49854    0.13386    1.000
    N2155    N        0.43435    0.48193    0.21592    1.000
    Si2156   Si       0.42770    0.52048    0.19817    1.000
    N2157    N        0.37015    0.53676    0.12858    1.000
    N2158    N        0.34279    0.51420    0.34647    1.000
    N2159    N        0.26619    0.51556    0.34301    1.000
    Si2160   Si       0.30331    0.49795    0.35658    1.000
    Si2161   Si       0.35111    0.51085    0.30412    1.000
    N2162    N        0.25567    0.52274    0.27039    1.000
    N2163    N        0.31967    0.48889    0.28204    1.000
    Si2164   Si       0.27889    0.48621    0.26867    1.000
    N2165    N        0.39259    0.50116    0.29186    1.000
    N2166    N        0.48170    0.48936    0.33366    1.000
    Si2167   Si       0.39180    0.53908    0.26358    1.000
    N2168    N        0.32909    0.52316    0.46568    1.000
    N2169    N        0.30442    0.49715    0.40095    1.000
    N2170    N        0.24666    0.50990    0.48288    1.000
    Si2171   Si       0.30829    0.53084    0.42857    1.000
    Si2172   Si       0.35962    0.52975    0.38375    1.000
    N2173    N        0.40752    0.53465    0.44681    1.000
    N2174    N        0.36628    0.49785    0.41337    1.000
    Si2175   Si       0.37058    0.51265    0.45455    1.000
    N2176    N        0.45652    0.50224    0.47321    1.000
    Si2177   Si       0.45045    0.53006    0.43681    1.000
    N2178    N        0.45891    0.50989    0.39686    1.000
    N2179    N        0.29681    0.50834    0.52630    1.000
    Si2180   Si       0.33557    0.51852    0.51156    1.000
    Si2181   Si       0.34316    0.49613    0.61404    1.000
    Si2182   Si       0.26072    0.48577    0.51682    1.000
    N2183    N        0.24320    0.49217    0.61637    1.000
    N2184    N        0.30962    0.47896    0.59102    1.000
    Si2185   Si       0.47772    0.50306    0.60172    1.000
    N2186    N        0.42395    0.49219    0.54325    1.000
    N2187    N        0.47089    0.53373    0.57127    1.000
    Si2188   Si       0.38965    0.48473    0.51758    1.000
    Si2189   Si       0.43165    0.53552    0.55174    1.000
    N2190    N        0.37944    0.52346    0.49871    1.000
    Si2191   Si       0.24314    0.50771    0.65884    1.000
    N2192    N        0.28443    0.52356    0.66416    1.000
    Si2193   Si       0.30492    0.48625    0.67329    1.000
    N2194    N        0.34524    0.49196    0.65905    1.000
    N2195    N        0.30314    0.48197    0.71750    1.000
    Si2196   Si       0.26086    0.47951    0.72886    1.000
    Si2197   Si       0.33600    0.47720    0.74484    1.000
    Si2198   Si       0.45277    0.51407    0.67092    1.000
    N2199    N        0.44975    0.52412    0.63018    1.000
    N2200    N        0.41817    0.48812    0.68085    1.000
    N2201    N        0.36592    0.49995    0.72415    1.000
    Si2202   Si       0.37711    0.48054    0.68622    1.000
    N2203    N        0.33935    0.50629    0.85063    1.000
    N2204    N        0.32786    0.50000    0.78250    1.000
    N2205    N        0.24829    0.51500    0.75451    1.000
    Si2206   Si       0.32150    0.47976    0.82065    1.000
    N2207    N        0.45058    0.51134    0.81071    1.000
    N2208    N        0.40689    0.48892    0.86820    1.000
    Si2209   Si       0.42517    0.48249    0.83115    1.000
    N2210    N        0.31726    0.49995    0.96460    1.000
    Si2211   Si       0.36009    0.49902    0.95630    1.000
    N2212    N        0.36303    0.51449    0.91607    1.000
    Si2213   Si       0.36593    0.48731    0.88156    1.000
    N2214    N        0.46287    0.52750    0.98166    1.000
    Si2215   Si       0.42479    0.52212    0.96090    1.000
    N2216    N        0.38727    0.52285    0.98279    1.000
    Si2217   Si       0.47901    0.48490    0.96595    1.000
    N2218    N        0.43766    0.48135    0.94987    1.000
    N2219    N        0.32270    0.54994    0.01199    1.000
    N2220    N        0.25948    0.59339    0.01523    1.000
    Si2221   Si       0.29749    0.58322    0.99713    1.000
    Si2222   Si       0.36490    0.54469    0.01623    1.000
    N2223    N        0.45924    0.57736    0.03632    1.000
    N2224    N        0.38389    0.58378    0.02715    1.000
    N2225    N        0.41428    0.55933    0.08488    1.000
    Si2226   Si       0.41914    0.58696    0.05243    1.000
    N2227    N        0.30265    0.55855    0.12373    1.000
    Si2228   Si       0.28929    0.59623    0.13395    1.000
    N2229    N        0.34262    0.58272    0.17743    1.000
    N2230    N        0.27208    0.58865    0.17729    1.000
    N2231    N        0.30044    0.55001    0.22668    1.000
    Si2232   Si       0.30775    0.58646    0.20240    1.000
    Si2233   Si       0.38083    0.57503    0.19536    1.000
    N2234    N        0.41349    0.58604    0.16515    1.000
    Si2235   Si       0.39957    0.57145    0.12569    1.000
    N2236    N        0.39387    0.54012    0.21945    1.000
    N2237    N        0.45899    0.54910    0.19893    1.000
    Si2238   Si       0.45466    0.59047    0.18396    1.000
    N2239    N        0.29640    0.57052    0.30055    1.000
    Si2240   Si       0.27839    0.55881    0.26122    1.000
    Si2241   Si       0.27031    0.55777    0.33358    1.000
    Si2242   Si       0.33835    0.58412    0.30503    1.000
    N2243    N        0.24968    0.59066    0.25576    1.000
    N2244    N        0.34608    0.59118    0.34890    1.000
    N2245    N        0.35753    0.55114    0.28719    1.000
    N2246    N        0.27791    0.58244    0.36755    1.000
    N2247    N        0.42457    0.56653    0.27085    1.000
    N2248    N        0.45534    0.55470    0.34091    1.000
    Si2249   Si       0.44139    0.58258    0.30986    1.000
    Si2250   Si       0.38770    0.59048    0.36321    1.000
    N2251    N        0.39641    0.54982    0.37631    1.000
    N2252    N        0.26843    0.54874    0.43181    1.000
    Si2253   Si       0.25453    0.57903    0.40456    1.000
    N2254    N        0.33380    0.55909    0.40520    1.000
    Si2255   Si       0.25595    0.55073    0.47301    1.000
    Si2256   Si       0.31763    0.59303    0.38235    1.000
    N2257    N        0.39987    0.59516    0.46650    1.000
    Si2258   Si       0.40595    0.55624    0.48670    1.000
    N2259    N        0.44778    0.57261    0.41590    1.000
    Si2260   Si       0.43830    0.54574    0.38009    1.000
    N2261    N        0.33444    0.55564    0.54360    1.000
    Si2262   Si       0.26638    0.58333    0.59388    1.000
    Si2263   Si       0.29081    0.55001    0.54102    1.000
    N2264    N        0.26290    0.54414    0.57359    1.000
    N2265    N        0.27440    0.56943    0.50671    1.000
    N2266    N        0.33964    0.53972    0.61097    1.000
    Si2267   Si       0.36126    0.56262    0.57762    1.000
    N2268    N        0.29326    0.58488    0.62642    1.000
    Si2269   Si       0.47880    0.57610    0.51108    1.000
    N2270    N        0.43864    0.55728    0.51525    1.000
    N2271    N        0.45567    0.58769    0.60573    1.000
    Si2272   Si       0.42677    0.55789    0.61442    1.000
    N2273    N        0.40240    0.54931    0.57897    1.000
    Si2274   Si       0.49012    0.57318    0.58266    1.000
    Si2275   Si       0.32031    0.58944    0.71708    1.000
    N2276    N        0.27772    0.58310    0.71864    1.000
    N2277    N        0.33973    0.56994    0.68077    1.000
    Si2278   Si       0.31523    0.55314    0.64732    1.000
    N2279    N        0.34016    0.56316    0.74693    1.000
    N2280    N        0.39645    0.57584    0.64182    1.000
    Si2281   Si       0.44544    0.57035    0.72223    1.000
    Si2282   Si       0.38162    0.57855    0.68148    1.000
    N2283    N        0.46913    0.54512    0.69632    1.000
    N2284    N        0.40470    0.55943    0.71228    1.000
    Si2285   Si       0.37658    0.53988    0.73686    1.000
    N2286    N        0.32930    0.56410    0.81782    1.000
    N2287    N        0.26844    0.57456    0.78657    1.000
    Si2288   Si       0.33747    0.55086    0.85771    1.000
    Si2289   Si       0.34376    0.53995    0.78513    1.000
    Si2290   Si       0.25565    0.55772    0.74801    1.000
    Si2291   Si       0.27359    0.58891    0.87102    1.000
    N2292    N        0.38913    0.53994    0.78013    1.000
    Si2293   Si       0.42986    0.54786    0.79420    1.000
    N2294    N        0.45607    0.56165    0.76249    1.000
    N2295    N        0.43381    0.57214    0.82933    1.000
    Si2296   Si       0.47431    0.58087    0.84189    1.000
    Si2297   Si       0.40545    0.59251    0.85616    1.000
    N2298    N        0.37611    0.56433    0.87134    1.000
    Si2299   Si       0.24448    0.57118    0.94071    1.000
    N2300    N        0.30842    0.56822    0.88547    1.000
    N2301    N        0.28562    0.57400    0.95546    1.000
    Si2302   Si       0.31595    0.58684    0.92555    1.000
    N2303    N        0.35640    0.57656    0.93902    1.000
    N2304    N        0.47844    0.59028    0.93781    1.000
    Si2305   Si       0.38216    0.55338    0.91345    1.000
    N2306    N        0.42215    0.54897    0.92683    1.000
    Si2307   Si       0.45183    0.57343    0.90910    1.000
    N2308    N        0.47950    0.55932    0.87768    1.000
    N2309    N        0.26046    0.60814    0.10528    1.000
    N2310    N        0.35435    0.64773    0.05102    1.000
    N2311    N        0.32530    0.61562    0.99872    1.000
    Si2312   Si       0.36456    0.62170    0.01769    1.000
    Si2313   Si       0.45729    0.64362    0.05898    1.000
    Si2314   Si       0.38303    0.64164    0.08368    1.000
    N2315    N        0.41585    0.62918    0.06017    1.000
    N2316    N        0.47224    0.61374    0.08821    1.000
    N2317    N        0.38122    0.61114    0.11675    1.000
    N2318    N        0.31532    0.63121    0.13738    1.000
    N2319    N        0.30961    0.61907    0.23040    1.000
    Si2320   Si       0.35145    0.61557    0.15069    1.000
    Si2321   Si       0.35064    0.62947    0.24380    1.000
    N2322    N        0.24787    0.65858    0.22446    1.000
    Si2323   Si       0.26925    0.62896    0.24759    1.000
    N2324    N        0.45996    0.60948    0.22536    1.000
    N2325    N        0.48796    0.59929    0.15895    1.000
    N2326    N        0.44679    0.65031    0.14665    1.000
    N2327    N        0.37638    0.64741    0.16950    1.000
    Si2328   Si       0.47916    0.62773    0.12736    1.000
    N2329    N        0.38304    0.60487    0.22603    1.000
    Si2330   Si       0.40563    0.64070    0.13963    1.000
    N2331    N        0.26694    0.64128    0.28934    1.000
    N2332    N        0.35799    0.62246    0.28682    1.000
    Si2333   Si       0.39377    0.63861    0.30336    1.000
    N2334    N        0.42087    0.64055    0.26897    1.000
    N2335    N        0.41025    0.60660    0.32906    1.000
    N2336    N        0.47667    0.60518    0.29675    1.000
    Si2337   Si       0.42145    0.60423    0.24590    1.000
    N2338    N        0.26224    0.61293    0.43174    1.000
    N2339    N        0.32367    0.62797    0.47744    1.000
    N2340    N        0.31904    0.63053    0.40452    1.000
    Si2341   Si       0.29826    0.63644    0.44252    1.000
    N2342    N        0.24468    0.63404    0.49525    1.000
    Si2343   Si       0.42319    0.60613    0.42997    1.000
    Si2344   Si       0.47564    0.64154    0.47695    1.000
    N2345    N        0.43558    0.64173    0.45162    1.000
    Si2346   Si       0.41330    0.62934    0.49191    1.000
    N2347    N        0.39951    0.61716    0.39431    1.000
    Si2348   Si       0.29898    0.64740    0.55986    1.000
    N2349    N        0.27549    0.60934    0.55839    1.000
    N2350    N        0.33732    0.64606    0.54567    1.000
    Si2351   Si       0.35212    0.63333    0.50748    1.000
    Si2352   Si       0.24999    0.60099    0.52401    1.000
    N2353    N        0.28969    0.65646    0.60295    1.000
    N2354    N        0.36772    0.60596    0.58965    1.000
    Si2355   Si       0.37752    0.63733    0.56195    1.000
    N2356    N        0.38529    0.61171    0.52553    1.000
    N2357    N        0.45198    0.63757    0.51423    1.000
    Si2358   Si       0.47934    0.63841    0.54858    1.000
    Si2359   Si       0.44894    0.62705    0.61740    1.000
    N2360    N        0.45766    0.65159    0.58264    1.000
    N2361    N        0.24581    0.65071    0.71926    1.000
    Si2362   Si       0.29757    0.62645    0.63527    1.000
    N2363    N        0.26393    0.63438    0.66016    1.000
    N2364    N        0.33848    0.62954    0.64657    1.000
    N2365    N        0.33307    0.63077    0.71919    1.000
    Si2366   Si       0.35220    0.65092    0.68372    1.000
    Si2367   Si       0.24058    0.60865    0.71053    1.000
    N2368    N        0.38793    0.62252    0.68439    1.000
    Si2369   Si       0.47792    0.63961    0.73749    1.000
    Si2370   Si       0.43021    0.63309    0.68699    1.000
    Si2371   Si       0.37604    0.61505    0.63025    1.000
    N2372    N        0.44845    0.61302    0.72167    1.000
    N2373    N        0.40718    0.64459    0.62623    1.000
    N2374    N        0.46054    0.62653    0.65857    1.000
    N2375    N        0.28773    0.61521    0.84046    1.000
    N2376    N        0.30181    0.63081    0.77960    1.000
    Si2377   Si       0.33295    0.65209    0.75725    1.000
    Si2378   Si       0.30100    0.59480    0.80312    1.000
    N2379    N        0.38683    0.62392    0.83524    1.000
    N2380    N        0.26732    0.64311    0.96901    1.000
    N2381    N        0.31451    0.63158    0.92194    1.000
    Si2382   Si       0.27181    0.64020    0.92472    1.000
    Si2383   Si       0.30252    0.65353    0.99142    1.000
    N2384    N        0.25654    0.60155    0.90936    1.000
    Si2385   Si       0.48129    0.63450    0.93996    1.000
    Si2386   Si       0.41854    0.64688    0.91047    1.000
    N2387    N        0.42737    0.60647    0.89247    1.000
    N2388    N        0.44316    0.65332    0.94664    1.000
    N2389    N        0.39168    0.64139    0.99176    1.000
    Si2390   Si       0.32628    0.68165    0.05051    1.000
    N2391    N        0.32178    0.69090    0.09270    1.000
    N2392    N        0.29153    0.67286    0.02850    1.000
    N2393    N        0.26012    0.67309    0.12066    1.000
    N2394    N        0.46640    0.68202    0.08185    1.000
    N2395    N        0.39934    0.67268    0.10908    1.000
    Si2396   Si       0.43653    0.69885    0.10803    1.000
    N2397    N        0.46050    0.65560    0.01690    1.000
    Si2398   Si       0.30305    0.67176    0.12784    1.000
    N2399    N        0.31454    0.70198    0.15580    1.000
    N2400    N        0.35675    0.67050    0.23183    1.000
    Si2401   Si       0.32963    0.70326    0.23805    1.000
    Si2402   Si       0.25245    0.70234    0.22347    1.000
    N2403    N        0.29414    0.71168    0.21361    1.000
    Si2404   Si       0.38487    0.67890    0.19832    1.000
    Si2405   Si       0.45621    0.68502    0.17322    1.000
    N2406    N        0.42937    0.68354    0.20819    1.000
    N2407    N        0.30788    0.69846    0.27565    1.000
    N2408    N        0.26993    0.70017    0.32530    1.000
    N2409    N        0.32575    0.66815    0.33372    1.000
    Si2410   Si       0.29416    0.66976    0.30667    1.000
    Si2411   Si       0.26744    0.70990    0.36642    1.000
    Si2412   Si       0.36213    0.69324    0.33865    1.000
    N2413    N        0.47150    0.68565    0.32625    1.000
    N2414    N        0.40114    0.67175    0.33197    1.000
    Si2415   Si       0.43074    0.70116    0.31951    1.000
    N2416    N        0.43081    0.70844    0.27646    1.000
    Si2417   Si       0.44039    0.67400    0.25012    1.000
    Si2418   Si       0.48209    0.69010    0.36854    1.000
    N2419    N        0.48674    0.66635    0.25655    1.000
    N2420    N        0.30056    0.69611    0.39067    1.000
    N2421    N        0.28403    0.67564    0.45372    1.000
    Si2422   Si       0.32659    0.66306    0.37770    1.000
    Si2423   Si       0.29958    0.70840    0.43251    1.000
    Si2424   Si       0.26483    0.67384    0.49438    1.000
    N2425    N        0.34082    0.71476    0.44547    1.000
    Si2426   Si       0.36900    0.70896    0.41427    1.000
    Si2427   Si       0.44416    0.68125    0.43225    1.000
    N2428    N        0.36736    0.67749    0.38357    1.000
    Si2429   Si       0.40605    0.65684    0.37688    1.000
    N2430    N        0.40683    0.70394    0.43356    1.000
    N2431    N        0.38399    0.66407    0.49419    1.000
    N2432    N        0.44390    0.67459    0.38856    1.000
    N2433    N        0.46533    0.71556    0.44938    1.000
    N2434    N        0.28292    0.67637    0.53255    1.000
    Si2435   Si       0.26684    0.69035    0.61671    1.000
    N2436    N        0.24224    0.70256    0.58140    1.000
    Si2437   Si       0.26075    0.71379    0.54342    1.000
    N2438    N        0.23661    0.70696    0.50432    1.000
    Si2439   Si       0.39202    0.69659    0.52073    1.000
    N2440    N        0.39735    0.67647    0.55810    1.000
    Si2441   Si       0.43265    0.68854    0.57917    1.000
    N2442    N        0.42792    0.70559    0.62056    1.000
    Si2443   Si       0.46712    0.71320    0.51567    1.000
    N2444    N        0.45663    0.71552    0.55835    1.000
    Si2445   Si       0.26149    0.67331    0.68448    1.000
    N2446    N        0.30476    0.68719    0.68421    1.000
    Si2447   Si       0.32900    0.71003    0.65302    1.000
    Si2448   Si       0.29769    0.70978    0.72040    1.000
    N2449    N        0.23944    0.69495    0.65238    1.000
    N2450    N        0.43092    0.67659    0.68687    1.000
    Si2451   Si       0.40846    0.68074    0.64999    1.000
    N2452    N        0.39791    0.70110    0.74160    1.000
    N2453    N        0.36656    0.68706    0.66224    1.000
    Si2454   Si       0.43612    0.70001    0.72329    1.000
    N2455    N        0.29003    0.68471    0.82444    1.000
    Si2456   Si       0.27969    0.66818    0.78638    1.000
    N2457    N        0.30547    0.68942    0.75736    1.000
    N2458    N        0.33914    0.65985    0.86278    1.000
    N2459    N        0.36140    0.66537    0.78466    1.000
    Si2460   Si       0.29704    0.65480    0.85637    1.000
    N2461    N        0.23704    0.67747    0.78137    1.000
    Si2462   Si       0.36677    0.66102    0.82882    1.000
    N2463    N        0.47401    0.66946    0.82279    1.000
    N2464    N        0.39065    0.69579    0.83040    1.000
    Si2465   Si       0.46794    0.69889    0.79019    1.000
    Si2466   Si       0.47350    0.67034    0.86749    1.000
    Si2467   Si       0.41625    0.71054    0.86026    1.000
    Si2468   Si       0.39011    0.70518    0.78526    1.000
    N2469    N        0.46188    0.67852    0.75097    1.000
    N2470    N        0.27042    0.66582    0.88781    1.000
    N2471    N        0.32979    0.70195    0.91553    1.000
    N2472    N        0.33411    0.68062    0.97670    1.000
    Si2473   Si       0.34125    0.66136    0.90681    1.000
    Si2474   Si       0.31510    0.71285    0.95409    1.000
    Si2475   Si       0.43083    0.66203    0.98634    1.000
    N2476    N        0.43391    0.67621    0.88326    1.000
    Si2477   Si       0.37567    0.67490    0.96549    1.000
    N2478    N        0.40675    0.70067    0.98150    1.000
    N2479    N        0.37960    0.65778    0.92477    1.000
    Si2480   Si       0.33099    0.73471    0.08689    1.000
    Si2481   Si       0.35090    0.75062    0.01548    1.000
    N2482    N        0.26218    0.75552    0.00916    1.000
    N2483    N        0.33870    0.72269    0.04401    1.000
    N2484    N        0.30178    0.76644    0.08595    1.000
    Si2485   Si       0.26304    0.76492    0.10514    1.000
    N2486    N        0.36197    0.74074    0.11742    1.000
    Si2487   Si       0.39704    0.76311    0.10677    1.000
    N2488    N        0.42748    0.73663    0.08909    1.000
    N2489    N        0.39312    0.75823    0.01957    1.000
    Si2490   Si       0.46189    0.75804    0.07198    1.000
    N2491    N        0.47998    0.77067    0.10995    1.000
    N2492    N        0.26093    0.73723    0.13956    1.000
    N2493    N        0.31771    0.76311    0.16684    1.000
    Si2494   Si       0.28640    0.73543    0.17732    1.000
    Si2495   Si       0.34627    0.73192    0.15608    1.000
    N2496    N        0.25648    0.76291    0.19758    1.000
    Si2497   Si       0.38092    0.75226    0.21593    1.000
    N2498    N        0.48207    0.73342    0.23888    1.000
    Si2499   Si       0.45681    0.76126    0.14547    1.000
    N2500    N        0.45189    0.71864    0.14437    1.000
    N2501    N        0.37383    0.72065    0.18802    1.000
    N2502    N        0.42170    0.76404    0.22542    1.000
    Si2503   Si       0.34110    0.75466    0.28650    1.000
    N2504    N        0.29977    0.75894    0.30184    1.000
    Si2505   Si       0.27576    0.72533    0.29004    1.000
    N2506    N        0.27041    0.75329    0.36822    1.000
    N2507    N        0.24391    0.72441    0.26029    1.000
    N2508    N        0.35930    0.73370    0.32406    1.000
    N2509    N        0.35448    0.73808    0.24747    1.000
    N2510    N        0.45338    0.77042    0.29107    1.000
    Si2511   Si       0.36696    0.76607    0.35141    1.000
    N2512    N        0.43287    0.73566    0.34793    1.000
    Si2513   Si       0.44438    0.74441    0.25745    1.000
    N2514    N        0.28263    0.74875    0.43369    1.000
    Si2515   Si       0.35122    0.73965    0.48164    1.000
    Si2516   Si       0.25695    0.77075    0.40483    1.000
    N2517    N        0.31561    0.76182    0.49327    1.000
    Si2518   Si       0.42702    0.73752    0.46004    1.000
    N2519    N        0.48880    0.72928    0.38834    1.000
    N2520    N        0.42967    0.76294    0.41826    1.000
    Si2521   Si       0.45266    0.75072    0.38468    1.000
    N2522    N        0.37146    0.74463    0.38948    1.000
    N2523    N        0.38478    0.76119    0.46450    1.000
    Si2524   Si       0.38461    0.77074    0.41994    1.000
    N2525    N        0.28676    0.74573    0.55508    1.000
    Si2526   Si       0.30695    0.75042    0.59445    1.000
    N2527    N        0.33987    0.77126    0.57503    1.000
    N2528    N        0.30251    0.71604    0.61881    1.000
    N2529    N        0.36329    0.72933    0.52287    1.000
    Si2530   Si       0.37584    0.75815    0.55361    1.000
    N2531    N        0.40672    0.76036    0.58469    1.000
    N2532    N        0.47351    0.76098    0.60828    1.000
    Si2533   Si       0.48361    0.75199    0.56708    1.000
    Si2534   Si       0.43387    0.74789    0.61681    1.000
    N2535    N        0.42640    0.71736    0.50097    1.000
    Si2536   Si       0.23367    0.74966    0.70664    1.000
    N2537    N        0.33669    0.75213    0.66188    1.000
    N2538    N        0.32001    0.74598    0.73129    1.000
    N2539    N        0.25452    0.71299    0.71731    1.000
    N2540    N        0.38522    0.76888    0.70545    1.000
    N2541    N        0.41934    0.76428    0.65558    1.000
    N2542    N        0.45467    0.73679    0.71016    1.000
    Si2543   Si       0.37708    0.77067    0.66212    1.000
    Si2544   Si       0.42910    0.76888    0.69768    1.000
    N2545    N        0.28167    0.74616    0.79284    1.000
    Si2546   Si       0.28509    0.72697    0.83288    1.000
    N2547    N        0.32159    0.74085    0.85343    1.000
    Si2548   Si       0.31921    0.73062    0.77193    1.000
    N2549    N        0.24992    0.72842    0.85735    1.000
    N2550    N        0.35801    0.73831    0.78711    1.000
    Si2551   Si       0.24926    0.77436    0.78176    1.000
    Si2552   Si       0.43724    0.76292    0.81471    1.000
    N2553    N        0.44092    0.74770    0.85450    1.000
    N2554    N        0.43295    0.72318    0.79190    1.000
    Si2555   Si       0.34582    0.72996    0.88747    1.000
    N2556    N        0.33025    0.74826    0.97699    1.000
    N2557    N        0.33641    0.76822    0.90727    1.000
    N2558    N        0.27338    0.72152    0.95574    1.000
    N2559    N        0.45898    0.75323    0.91483    1.000
    Si2560   Si       0.47810    0.74758    0.87695    1.000
    N2561    N        0.38764    0.72809    0.88983    1.000
    N2562    N        0.46047    0.75129    0.98826    1.000
    Si2563   Si       0.41802    0.74087    0.98778    1.000
    Si2564   Si       0.41593    0.75861    0.90530    1.000
    N2565    N        0.41048    0.76407    0.95066    1.000
    Si2566   Si       0.30618    0.80399    0.06283    1.000
    N2567    N        0.33028    0.79191    0.02300    1.000
    N2568    N        0.26642    0.81695    0.04449    1.000
    Si2569   Si       0.35221    0.82619    0.00037    1.000
    Si2570   Si       0.24154    0.78080    0.03646    1.000
    N2571    N        0.44615    0.79211    0.05076    1.000
    N2572    N        0.38476    0.79760    0.08353    1.000
    Si2573   Si       0.40207    0.79271    0.04378    1.000
    Si2574   Si       0.47234    0.82465    0.04569    1.000
    N2575    N        0.38920    0.82808    0.02462    1.000
    N2576    N        0.25922    0.80297    0.12580    1.000
    Si2577   Si       0.26408    0.79724    0.22271    1.000
    N2578    N        0.30810    0.80006    0.22620    1.000
    Si2579   Si       0.32761    0.79884    0.18784    1.000
    Si2580   Si       0.26675    0.83021    0.15955    1.000
    N2581    N        0.30862    0.83384    0.16740    1.000
    N2582    N        0.24387    0.82757    0.19961    1.000
    Si2583   Si       0.44859    0.79513    0.20880    1.000
    N2584    N        0.41573    0.77878    0.14160    1.000
    N2585    N        0.42226    0.82673    0.19539    1.000
    N2586    N        0.47320    0.81611    0.23731    1.000
    N2587    N        0.47464    0.78736    0.17607    1.000
    Si2588   Si       0.39764    0.80988    0.16535    1.000
    N2589    N        0.37000    0.78787    0.19209    1.000
    N2590    N        0.33217    0.79250    0.35622    1.000
    N2591    N        0.26336    0.81044    0.33045    1.000
    N2592    N        0.35759    0.79402    0.27713    1.000
    Si2593   Si       0.33233    0.82002    0.25385    1.000
    Si2594   Si       0.29302    0.77887    0.34204    1.000
    Si2595   Si       0.26601    0.82776    0.29002    1.000
    N2596    N        0.24614    0.79766    0.26282    1.000
    Si2597   Si       0.24418    0.82734    0.36604    1.000
    Si2598   Si       0.38469    0.81843    0.29901    1.000
    N2599    N        0.39683    0.79358    0.33131    1.000
    N2600    N        0.46424    0.78818    0.36188    1.000
    Si2601   Si       0.48180    0.80099    0.27679    1.000
    Si2602   Si       0.43621    0.77549    0.32982    1.000
    N2603    N        0.47593    0.83142    0.31034    1.000
    N2604    N        0.29984    0.81710    0.45487    1.000
    N2605    N        0.26486    0.81273    0.39966    1.000
    Si2606   Si       0.34712    0.82815    0.37702    1.000
    N2607    N        0.24390    0.77727    0.48112    1.000
    Si2608   Si       0.28428    0.77697    0.46590    1.000
    N2609    N        0.37479    0.81059    0.40979    1.000
    N2610    N        0.39037    0.83068    0.47529    1.000
    N2611    N        0.44307    0.78115    0.47675    1.000
    Si2612   Si       0.45377    0.79480    0.43689    1.000
    Si2613   Si       0.40094    0.79286    0.49016    1.000
    Si2614   Si       0.34010    0.80140    0.60693    1.000
    Si2615   Si       0.26136    0.81008    0.60893    1.000
    N2616    N        0.31256    0.81406    0.53005    1.000
    N2617    N        0.29832    0.78789    0.62030    1.000
    Si2618   Si       0.31623    0.77218    0.53586    1.000
    N2619    N        0.39469    0.78943    0.53169    1.000
    Si2620   Si       0.42304    0.79542    0.56359    1.000
    N2621    N        0.46314    0.78726    0.54893    1.000
    Si2622   Si       0.47398    0.78332    0.50790    1.000
    N2623    N        0.41858    0.83001    0.58900    1.000
    Si2624   Si       0.24524    0.81518    0.68228    1.000
    N2625    N        0.32422    0.80745    0.69555    1.000
    Si2626   Si       0.30297    0.78128    0.66398    1.000
    Si2627   Si       0.34590    0.77857    0.72197    1.000
    N2628    N        0.26240    0.77490    0.68238    1.000
    Si2629   Si       0.35303    0.83655    0.67403    1.000
    N2630    N        0.44184    0.80675    0.71071    1.000
    Si2631   Si       0.48826    0.80766    0.71397    1.000
    N2632    N        0.37003    0.81016    0.64261    1.000
    N2633    N        0.28090    0.79861    0.85322    1.000
    N2634    N        0.33523    0.79880    0.82205    1.000
    N2635    N        0.26839    0.81285    0.78175    1.000
    Si2636   Si       0.29591    0.81800    0.81682    1.000
    Si2637   Si       0.32360    0.78637    0.86493    1.000
    N2638    N        0.35464    0.79819    0.75859    1.000
    Si2639   Si       0.36574    0.77991    0.79700    1.000
    N2640    N        0.40449    0.79320    0.81174    1.000
    N2641    N        0.47356    0.78118    0.79472    1.000
    Si2642   Si       0.48358    0.82357    0.79500    1.000
    Si2643   Si       0.24410    0.81320    0.87454    1.000
    N2644    N        0.29617    0.79811    0.96222    1.000
    Si2645   Si       0.25649    0.81329    0.95198    1.000
    Si2646   Si       0.33304    0.78306    0.94692    1.000
    N2647    N        0.33451    0.82771    0.87756    1.000
    Si2648   Si       0.29989    0.77197    0.99755    1.000
    N2649    N        0.36399    0.80604    0.96343    1.000
    N2650    N        0.43793    0.82004    0.96411    1.000
    Si2651   Si       0.45790    0.77740    0.95378    1.000
    Si2652   Si       0.40114    0.81131    0.94021    1.000
    N2653    N        0.40131    0.79888    0.89729    1.000
    Si2654   Si       0.31054    0.87502    0.08601    1.000
    Si2655   Si       0.25578    0.85986    0.04321    1.000
    N2656    N        0.26763    0.87373    0.08364    1.000
    N2657    N        0.32787    0.83623    0.08159    1.000
    N2658    N        0.27925    0.88802    0.02061    1.000
    Si2659   Si       0.24078    0.89000    0.11280    1.000
    N2660    N        0.32697    0.89143    0.12279    1.000
    N2661    N        0.44849    0.86151    0.04281    1.000
    N2662    N        0.39264    0.86852    0.08298    1.000
    Si2663   Si       0.40442    0.86587    0.03945    1.000
    Si2664   Si       0.36886    0.83416    0.09862    1.000
    Si2665   Si       0.33632    0.86604    0.15631    1.000
    N2666    N        0.25360    0.86900    0.14931    1.000
    N2667    N        0.35867    0.84535    0.23238    1.000
    Si2668   Si       0.35866    0.88821    0.22837    1.000
    N2669    N        0.40267    0.88848    0.22215    1.000
    Si2670   Si       0.40204    0.84533    0.23149    1.000
    N2671    N        0.37124    0.83842    0.14348    1.000
    Si2672   Si       0.32748    0.87614    0.29524    1.000
    N2673    N        0.30686    0.84053    0.28026    1.000
    N2674    N        0.24880    0.87202    0.36206    1.000
    N2675    N        0.24565    0.86585    0.29039    1.000
    N2676    N        0.36340    0.85760    0.30907    1.000
    N2677    N        0.43062    0.87733    0.33058    1.000
    Si2678   Si       0.44736    0.85840    0.29441    1.000
    Si2679   Si       0.38664    0.88164    0.33506    1.000
    N2680    N        0.46603    0.88160    0.26325    1.000
    N2681    N        0.41399    0.83787    0.27261    1.000
    Si2682   Si       0.35022    0.88364    0.40284    1.000
    Si2683   Si       0.24841    0.88271    0.47725    1.000
    N2684    N        0.25909    0.87256    0.43481    1.000
    N2685    N        0.31908    0.85456    0.39905    1.000
    Si2686   Si       0.28605    0.84060    0.42196    1.000
    Si2687   Si       0.30161    0.83570    0.49336    1.000
    N2688    N        0.33002    0.86861    0.49129    1.000
    N2689    N        0.43989    0.83337    0.42576    1.000
    N2690    N        0.46298    0.88768    0.46015    1.000
    Si2691   Si       0.39762    0.84052    0.43216    1.000
    N2692    N        0.37405    0.86341    0.37280    1.000
    Si2693   Si       0.37242    0.87118    0.48075    1.000
    N2694    N        0.37783    0.88015    0.43687    1.000
    Si2695   Si       0.46656    0.86547    0.42106    1.000
    Si2696   Si       0.30270    0.84525    0.55978    1.000
    N2697    N        0.33416    0.84090    0.58991    1.000
    Si2698   Si       0.34624    0.88225    0.59293    1.000
    N2699    N        0.26458    0.85305    0.50742    1.000
    N2700    N        0.26249    0.83533    0.57361    1.000
    N2701    N        0.46448    0.86351    0.54578    1.000
    Si2702   Si       0.45036    0.85850    0.58548    1.000
    N2703    N        0.48267    0.84785    0.61455    1.000
    Si2704   Si       0.30256    0.84387    0.71137    1.000
    N2705    N        0.32207    0.86823    0.67800    1.000
    N2706    N        0.25512    0.83711    0.64450    1.000
    N2707    N        0.26083    0.83846    0.71565    1.000
    Si2708   Si       0.24185    0.87962    0.63735    1.000
    Si2709   Si       0.40370    0.83767    0.62755    1.000
    N2710    N        0.44356    0.87257    0.72209    1.000
    N2711    N        0.38041    0.84573    0.70732    1.000
    N2712    N        0.37874    0.87429    0.62407    1.000
    Si2713   Si       0.47304    0.86518    0.65461    1.000
    N2714    N        0.43216    0.84924    0.65720    1.000
    Si2715   Si       0.42222    0.84243    0.70012    1.000
    N2716    N        0.29900    0.86151    0.82494    1.000
    Si2717   Si       0.30663    0.87813    0.78329    1.000
    Si2718   Si       0.25834    0.87714    0.84458    1.000
    N2719    N        0.26489    0.88078    0.77101    1.000
    Si2720   Si       0.24832    0.84393    0.75888    1.000
    Si2721   Si       0.32042    0.86571    0.86324    1.000
    N2722    N        0.32258    0.85682    0.74830    1.000
    N2723    N        0.38772    0.85566    0.77988    1.000
    N2724    N        0.45155    0.85295    0.80502    1.000
    N2725    N        0.39179    0.85088    0.84851    1.000
    Si2726   Si       0.40945    0.83818    0.81190    1.000
    Si2727   Si       0.36385    0.83940    0.74825    1.000
    N2728    N        0.28418    0.88670    0.88005    1.000
    N2729    N        0.33384    0.86344    0.98865    1.000
    N2730    N        0.25210    0.84600    0.98116    1.000
    Si2731   Si       0.25547    0.87724    0.91362    1.000
    Si2732   Si       0.29150    0.87070    0.98366    1.000
    N2733    N        0.25283    0.83294    0.91259    1.000
    N2734    N        0.39400    0.85154    0.92469    1.000
    Si2735   Si       0.37725    0.83592    0.88528    1.000
    Si2736   Si       0.46730    0.88858    0.88038    1.000
    N2737    N        0.47502    0.84656    0.87851    1.000
    Si2738   Si       0.47909    0.83537    0.96873    1.000
    Si2739   Si       0.30419    0.92229    0.02803    1.000
    N2740    N        0.32853    0.90993    0.06357    1.000
    Si2741   Si       0.34023    0.92809    0.10398    1.000
    N2742    N        0.33345    0.93158    0.99679    1.000
    N2743    N        0.45601    0.92868    0.02624    1.000
    N2744    N        0.45230    0.90794    0.09334    1.000
    N2745    N        0.38252    0.93128    0.11085    1.000
    Si2746   Si       0.47066    0.89811    0.05423    1.000
    Si2747   Si       0.41168    0.89893    0.10985    1.000
    Si2748   Si       0.48260    0.92233    0.12079    1.000
    N2749    N        0.39480    0.89418    0.00830    1.000
    N2750    N        0.28220    0.93066    0.19514    1.000
    Si2751   Si       0.32371    0.93339    0.18821    1.000
    Si2752   Si       0.25691    0.90657    0.17057    1.000
    N2753    N        0.25098    0.92711    0.13273    1.000
    N2754    N        0.33995    0.89350    0.19021    1.000
    N2755    N        0.42260    0.89441    0.15191    1.000
    Si2756   Si       0.42293    0.91015    0.19082    1.000
    N2757    N        0.46600    0.91458    0.20370    1.000
    N2758    N        0.34040    0.90339    0.26539    1.000
    Si2759   Si       0.30571    0.92180    0.35867    1.000
    N2760    N        0.24480    0.93191    0.31098    1.000
    Si2761   Si       0.32956    0.94586    0.26298    1.000
    N2762    N        0.28730    0.94709    0.26331    1.000
    N2763    N        0.30238    0.89440    0.32597    1.000
    Si2764   Si       0.25981    0.89010    0.32405    1.000
    N2765    N        0.38484    0.92366    0.32610    1.000
    Si2766   Si       0.45671    0.90167    0.35507    1.000
    N2767    N        0.43258    0.94101    0.27054    1.000
    Si2768   Si       0.37484    0.94367    0.36409    1.000
    N2769    N        0.44547    0.94267    0.34520    1.000
    Si2770   Si       0.46611    0.92527    0.24624    1.000
    N2771    N        0.34284    0.92020    0.38245    1.000
    N2772    N        0.27379    0.92815    0.38685    1.000
    N2773    N        0.27444    0.91463    0.49040    1.000
    Si2774   Si       0.24827    0.89497    0.39780    1.000
    Si2775   Si       0.43363    0.93634    0.41521    1.000
    Si2776   Si       0.43438    0.91138    0.48380    1.000
    N2777    N        0.44860    0.89838    0.39789    1.000
    N2778    N        0.41891    0.94089    0.45591    1.000
    Si2779   Si       0.28644    0.91141    0.58339    1.000
    N2780    N        0.33979    0.93450    0.51150    1.000
    Si2781   Si       0.31060    0.90192    0.51168    1.000
    N2782    N        0.24639    0.90171    0.59998    1.000
    N2783    N        0.31573    0.90206    0.61610    1.000
    N2784    N        0.30723    0.88726    0.55187    1.000
    N2785    N        0.37600    0.90942    0.57171    1.000
    Si2786   Si       0.37733    0.92470    0.53097    1.000
    N2787    N        0.46067    0.93398    0.51113    1.000
    Si2788   Si       0.39890    0.91082    0.61022    1.000
    Si2789   Si       0.47660    0.91854    0.61058    1.000
    N2790    N        0.43982    0.89773    0.60508    1.000
    N2791    N        0.39745    0.89746    0.50378    1.000
    Si2792   Si       0.48027    0.90549    0.53670    1.000
    Si2793   Si       0.30871    0.90282    0.65936    1.000
    N2794    N        0.26564    0.90361    0.66431    1.000
    Si2795   Si       0.25430    0.94072    0.68266    1.000
    N2796    N        0.32448    0.94133    0.67587    1.000
    N2797    N        0.27274    0.94402    0.72273    1.000
    Si2798   Si       0.43392    0.91445    0.73148    1.000
    N2799    N        0.39173    0.94128    0.63903    1.000
    N2800    N        0.44582    0.93845    0.69643    1.000
    Si2801   Si       0.48128    0.94353    0.66928    1.000
    N2802    N        0.33759    0.90587    0.79229    1.000
    Si2803   Si       0.25675    0.92259    0.75739    1.000
    N2804    N        0.27789    0.93948    0.79046    1.000
    Si2805   Si       0.32116    0.94574    0.78907    1.000
    Si2806   Si       0.25152    0.94992    0.82438    1.000
    N2807    N        0.40721    0.90786    0.81827    1.000
    N2808    N        0.46922    0.91054    0.84287    1.000
    N2809    N        0.45955    0.91891    0.76847    1.000
    Si2810   Si       0.38055    0.89988    0.78477    1.000
    Si2811   Si       0.44774    0.89750    0.80726    1.000
    Si2812   Si       0.39270    0.89973    0.86060    1.000
    N2813    N        0.39405    0.92118    0.74887    1.000
    Si2814   Si       0.25562    0.93091    0.95167    1.000
    Si2815   Si       0.35374    0.92421    0.90828    1.000
    Si2816   Si       0.28387    0.93221    0.88489    1.000
    N2817    N        0.24766    0.93753    0.90869    1.000
    Si2818   Si       0.35819    0.89853    0.98337    1.000
    N2819    N        0.31530    0.94226    0.91378    1.000
    N2820    N        0.27586    0.89371    0.94878    1.000
    N2821    N        0.35157    0.89116    0.88002    1.000
    N2822    N        0.44137    0.90605    0.96008    1.000
    N2823    N        0.37975    0.94261    0.87817    1.000
    Si2824   Si       0.48251    0.90854    0.94858    1.000
    N2825    N        0.37364    0.91205    0.94495    1.000
    N2826    N        0.42591    0.89574    0.89184    1.000
    Si2827   Si       0.41006    0.89115    0.93432    1.000
    N2828    N        0.49342    0.91140    0.90694    1.000
    Si2829   Si       0.42473    0.92315    0.99818    1.000
    Si2830   Si       0.31559    0.98488    0.05753    1.000
    N2831    N        0.34820    0.99491    0.03023    1.000
    N2832    N        0.31807    0.96611    0.09710    1.000
    Si2833   Si       0.26106    0.98363    0.00667    1.000
    N2834    N        0.28766    0.96189    0.03518    1.000
    Si2835   Si       0.35720    0.96834    0.99568    1.000
    N2836    N        0.46477    0.99826    0.08319    1.000
    Si2837   Si       0.42056    0.99711    0.00207    1.000
    N2838    N        0.46398    0.99621    0.00525    1.000
    Si2839   Si       0.48401    0.95727    0.00917    1.000
    N2840    N        0.40150    0.95966    0.99538    1.000
    N2841    N        0.27594    0.99518    0.22064    1.000
    Si2842   Si       0.31322    0.98527    0.13534    1.000
    N2843    N        0.27367    0.99061    0.15147    1.000
    N2844    N        0.34070    0.95685    0.15453    1.000
    Si2845   Si       0.24026    0.96783    0.13915    1.000
    Si2846   Si       0.26456    0.95445    0.22737    1.000
    N2847    N        0.34125    0.95333    0.22193    1.000
    Si2848   Si       0.44775    0.99269    0.12484    1.000
    N2849    N        0.40463    0.99176    0.13620    1.000
    N2850    N        0.46104    0.97441    0.22363    1.000
    Si2851   Si       0.38485    0.95612    0.14712    1.000
    Si2852   Si       0.48390    0.95958    0.18916    1.000
    N2853    N        0.46732    0.95769    0.14519    1.000
    Si2854   Si       0.37631    0.97906    0.20800    1.000
    N2855    N        0.39301    0.99645    0.24398    1.000
    N2856    N        0.39983    0.94933    0.18669    1.000
    N2857    N        0.34136    0.97927    0.28839    1.000
    Si2858   Si       0.32937    0.99199    0.32851    1.000
    N2859    N        0.29642    0.96091    0.33861    1.000
    Si2860   Si       0.27357    0.96312    0.30004    1.000
    N2861    N        0.27356    0.00519    0.29348    1.000
    N2862    N        0.36274    0.98488    0.35346    1.000
    Si2863   Si       0.43289    0.98520    0.26201    1.000
    N2864    N        0.41602    0.98960    0.30536    1.000
    Si2865   Si       0.45065    0.98198    0.36404    1.000
    N2866    N        0.47794    0.00463    0.33795    1.000
    Si2867   Si       0.41826    0.94618    0.31061    1.000
    Si2868   Si       0.26935    0.96921    0.37278    1.000
    N2869    N        0.30494    0.97573    0.46675    1.000
    N2870    N        0.28791    0.99889    0.39951    1.000
    Si2871   Si       0.27738    0.00115    0.44258    1.000
    Si2872   Si       0.26891    0.95674    0.48367    1.000
    N2873    N        0.24299    0.97709    0.45331    1.000
    Si2874   Si       0.33973    0.97483    0.49356    1.000
    Si2875   Si       0.40785    0.97433    0.48222    1.000
    N2876    N        0.44559    0.99705    0.47734    1.000
    N2877    N        0.46479    0.96698    0.40396    1.000
    N2878    N        0.40026    0.95809    0.39465    1.000
    N2879    N        0.37086    0.99597    0.47211    1.000
    Si2880   Si       0.38501    0.99819    0.38668    1.000
    N2881    N        0.25572    0.97962    0.51827    1.000
    Si2882   Si       0.28659    0.98900    0.54939    1.000
    N2883    N        0.32378    0.99861    0.52859    1.000
    N2884    N        0.28933    0.95191    0.56977    1.000
    N2885    N        0.39648    0.96325    0.52317    1.000
    Si2886   Si       0.47149    0.97582    0.50828    1.000
    Si2887   Si       0.40811    0.99345    0.55014    1.000
    N2888    N        0.45257    0.99691    0.54183    1.000
    N2889    N        0.40572    0.99388    0.59536    1.000
    Si2890   Si       0.44293    0.99163    0.61862    1.000
    Si2891   Si       0.30023    0.99876    0.65466    1.000
    Si2892   Si       0.31121    0.96349    0.71181    1.000
    N2893    N        0.34190    0.99037    0.63898    1.000
    N2894    N        0.26131    0.97505    0.65486    1.000
    N2895    N        0.30996    0.00536    0.69768    1.000
    Si2896   Si       0.36151    0.95985    0.66350    1.000
    N2897    N        0.33193    0.95771    0.74851    1.000
    N2898    N        0.38248    0.96924    0.70133    1.000
    N2899    N        0.47598    0.96003    0.62636    1.000
    Si2900   Si       0.42578    0.97605    0.69407    1.000
    N2901    N        0.44113    0.00601    0.72149    1.000
    Si2902   Si       0.37420    0.95988    0.74211    1.000
    N2903    N        0.43795    0.00058    0.65978    1.000
    N2904    N        0.33922    0.97546    0.81288    1.000
    Si2905   Si       0.31330    0.99215    0.84324    1.000
    N2906    N        0.28457    0.96034    0.85333    1.000
    N2907    N        0.34357    0.00422    0.87138    1.000
    Si2908   Si       0.37480    0.00015    0.80992    1.000
    N2909    N        0.40619    0.99707    0.83897    1.000
    N2910    N        0.38854    0.99014    0.76827    1.000
    N2911    N        0.48041    0.98180    0.82503    1.000
    N2912    N        0.34747    0.98785    0.95840    1.000
    Si2913   Si       0.30684    0.97788    0.94150    1.000
    N2914    N        0.27198    0.96812    0.96733    1.000
    Si2915   Si       0.38282    0.98472    0.87299    1.000
    Si2916   Si       0.53515    0.04221    0.10954    1.000
    N2917    N        0.57251    0.05500    0.08942    1.000
    N2918    N        0.52343    0.04976    0.02103    1.000
    Si2919   Si       0.58372    0.01355    0.07981    1.000
    N2920    N        0.50322    0.06325    0.09225    1.000
    N2921    N        0.59577    0.05536    0.99869    1.000
    Si2922   Si       0.61462    0.02346    0.02045    1.000
    N2923    N        0.62926    0.02822    0.06195    1.000
    N2924    N        0.65982    0.05675    0.00573    1.000
    N2925    N        0.72135    0.05186    0.01521    1.000
    N2926    N        0.60166    0.06047    0.17693    1.000
    Si2927   Si       0.50110    0.03486    0.17331    1.000
    N2928    N        0.53546    0.05228    0.15204    1.000
    Si2929   Si       0.61179    0.02399    0.19714    1.000
    N2930    N        0.64776    0.06075    0.12431    1.000
    N2931    N        0.63384    0.03947    0.23311    1.000
    N2932    N        0.67158    0.06018    0.18004    1.000
    Si2933   Si       0.67634    0.04351    0.22125    1.000
    Si2934   Si       0.66632    0.02725    0.14565    1.000
    Si2935   Si       0.54514    0.03446    0.27749    1.000
    N2936    N        0.51067    0.05506    0.29923    1.000
    N2937    N        0.56782    0.06510    0.25287    1.000
    N2938    N        0.58930    0.01503    0.28394    1.000
    Si2939   Si       0.61039    0.05444    0.26844    1.000
    N2940    N        0.60293    0.00756    0.35090    1.000
    N2941    N        0.71787    0.02135    0.29164    1.000
    Si2942   Si       0.68318    0.03569    0.31468    1.000
    N2943    N        0.65470    0.05772    0.29126    1.000
    N2944    N        0.69983    0.05938    0.34552    1.000
    N2945    N        0.54015    0.02218    0.36904    1.000
    Si2946   Si       0.58240    0.03688    0.37551    1.000
    Si2947   Si       0.53586    0.03000    0.41305    1.000
    N2948    N        0.58045    0.02733    0.41922    1.000
    N2949    N        0.59636    0.04651    0.48735    1.000
    Si2950   Si       0.59791    0.01329    0.45588    1.000
    N2951    N        0.69498    0.01351    0.41309    1.000
    N2952    N        0.72837    0.05988    0.47164    1.000
    Si2953   Si       0.69111    0.03859    0.48604    1.000
    Si2954   Si       0.65745    0.02547    0.42868    1.000
    N2955    N        0.65590    0.05111    0.46277    1.000
    Si2956   Si       0.70782    0.04695    0.38684    1.000
    N2957    N        0.64249    0.04014    0.39024    1.000
    N2958    N        0.51022    0.03424    0.54292    1.000
    Si2959   Si       0.59088    0.05588    0.52914    1.000
    N2960    N        0.60459    0.02316    0.60986    1.000
    N2961    N        0.57723    0.01637    0.54191    1.000
    Si2962   Si       0.61314    0.06595    0.60284    1.000
    Si2963   Si       0.66253    0.04434    0.55244    1.000
    N2964    N        0.68882    0.04471    0.58618    1.000
    N2965    N        0.68569    0.06285    0.52113    1.000
    N2966    N        0.62347    0.06597    0.55988    1.000
    N2967    N        0.60355    0.03367    0.67594    1.000
    Si2968   Si       0.58933    0.02789    0.71729    1.000
    Si2969   Si       0.58280    0.01213    0.64493    1.000
    Si2970   Si       0.52035    0.01119    0.67891    1.000
    N2971    N        0.55182    0.00890    0.71049    1.000
    N2972    N        0.49177    0.04285    0.68689    1.000
    N2973    N        0.53885    0.00954    0.63999    1.000
    N2974    N        0.72883    0.02303    0.71158    1.000
    N2975    N        0.68320    0.03117    0.65601    1.000
    N2976    N        0.65487    0.04803    0.71458    1.000
    Si2977   Si       0.70471    0.05316    0.62341    1.000
    Si2978   Si       0.64578    0.04721    0.67101    1.000
    Si2979   Si       0.74266    0.05027    0.74151    1.000
    Si2980   Si       0.60048    0.04082    0.78974    1.000
    N2981    N        0.51214    0.04133    0.77886    1.000
    Si2982   Si       0.56506    0.04502    0.86015    1.000
    N2983    N        0.59474    0.05675    0.82973    1.000
    N2984    N        0.58127    0.05326    0.75250    1.000
    N2985    N        0.52629    0.06467    0.85074    1.000
    N2986    N        0.70956    0.03629    0.81470    1.000
    N2987    N        0.64246    0.04991    0.78111    1.000
    Si2988   Si       0.66940    0.02164    0.80061    1.000
    Si2989   Si       0.70220    0.06104    0.85569    1.000
    Si2990   Si       0.49994    0.05055    0.88313    1.000
    Si2991   Si       0.54578    0.03029    0.93900    1.000
    N2992    N        0.52635    0.01972    0.90080    1.000
    Si2993   Si       0.60214    0.02145    0.90645    1.000
    N2994    N        0.58046    0.05981    0.90038    1.000
    Si2995   Si       0.49479    0.02654    0.99471    1.000
    N2996    N        0.64624    0.02333    0.90257    1.000
    N2997    N        0.70614    0.02169    0.87703    1.000
    Si2998   Si       0.69048    0.02724    0.99226    1.000
    N2999    N        0.69996    0.03699    0.95056    1.000
    Si3000   Si       0.67052    0.05355    0.92225    1.000
    Si3001   Si       0.57988    0.09751    0.09462    1.000
    N3002    N        0.56109    0.11299    0.00950    1.000
    N3003    N        0.49753    0.11590    0.03715    1.000
    Si3004   Si       0.50148    0.07309    0.05026    1.000
    Si3005   Si       0.55459    0.07120    0.99875    1.000
    N3006    N        0.61922    0.10228    0.07708    1.000
    Si3007   Si       0.71016    0.10632    0.09315    1.000
    N3008    N        0.68293    0.08052    0.06808    1.000
    Si3009   Si       0.69090    0.08049    0.02569    1.000
    N3010    N        0.69726    0.11228    0.99567    1.000
    Si3011   Si       0.64360    0.06452    0.08224    1.000
    N3012    N        0.62836    0.11827    0.99589    1.000
    N3013    N        0.54857    0.10509    0.19772    1.000
    Si3014   Si       0.56439    0.07964    0.16878    1.000
    N3015    N        0.57647    0.10733    0.13600    1.000
    Si3016   Si       0.55256    0.10311    0.24139    1.000
    N3017    N        0.70176    0.07308    0.24016    1.000
    N3018    N        0.63088    0.12351    0.17475    1.000
    Si3019   Si       0.63655    0.08127    0.16205    1.000
    N3020    N        0.64716    0.11020    0.24120    1.000
    Si3021   Si       0.70806    0.08456    0.17093    1.000
    N3022    N        0.72074    0.08473    0.12837    1.000
    Si3023   Si       0.50959    0.09811    0.30483    1.000
    N3024    N        0.53959    0.10606    0.33750    1.000
    Si3025   Si       0.58423    0.10417    0.33110    1.000
    N3026    N        0.51902    0.11567    0.26572    1.000
    N3027    N        0.60345    0.09540    0.29332    1.000
    N3028    N        0.59416    0.07736    0.36371    1.000
    Si3029   Si       0.72071    0.09559    0.33127    1.000
    Si3030   Si       0.67512    0.09066    0.27101    1.000
    N3031    N        0.70673    0.10958    0.29389    1.000
    Si3032   Si       0.53665    0.10917    0.38144    1.000
    N3033    N        0.52842    0.07232    0.40753    1.000
    N3034    N        0.65745    0.10981    0.37533    1.000
    N3035    N        0.69107    0.11596    0.47263    1.000
    N3036    N        0.70686    0.08273    0.41014    1.000
    N3037    N        0.61693    0.09668    0.43133    1.000
    Si3038   Si       0.71919    0.09541    0.44757    1.000
    Si3039   Si       0.63003    0.08211    0.39021    1.000
    Si3040   Si       0.62316    0.07954    0.47043    1.000
    Si3041   Si       0.69489    0.12052    0.39064    1.000
    N3042    N        0.50531    0.08330    0.58709    1.000
    N3043    N        0.56079    0.08518    0.54281    1.000
    Si3044   Si       0.53726    0.09712    0.61233    1.000
    Si3045   Si       0.51952    0.07604    0.54528    1.000
    N3046    N        0.49774    0.09781    0.51489    1.000
    N3047    N        0.57742    0.08482    0.61742    1.000
    Si3048   Si       0.56766    0.12499    0.55966    1.000
    N3049    N        0.73856    0.12188    0.51776    1.000
    N3050    N        0.61838    0.10756    0.50320    1.000
    Si3051   Si       0.63486    0.10714    0.54384    1.000
    Si3052   Si       0.69883    0.10444    0.51411    1.000
    Si3053   Si       0.49296    0.08003    0.70911    1.000
    N3054    N        0.59338    0.10985    0.69516    1.000
    Si3055   Si       0.58073    0.10693    0.65507    1.000
    N3056    N        0.53052    0.09353    0.72876    1.000
    N3057    N        0.53429    0.10544    0.65554    1.000
    Si3058   Si       0.55986    0.12517    0.71865    1.000
    N3059    N        0.70424    0.09466    0.63308    1.000
    N3060    N        0.63976    0.07754    0.63472    1.000
    N3061    N        0.64674    0.11213    0.74370    1.000
    Si3062   Si       0.66626    0.11192    0.63745    1.000
    Si3063   Si       0.73958    0.11950    0.63807    1.000
    N3064    N        0.54477    0.10111    0.79444    1.000
    Si3065   Si       0.51553    0.09736    0.82510    1.000
    N3066    N        0.61136    0.12170    0.80603    1.000
    Si3067   Si       0.54156    0.07093    0.76290    1.000
    Si3068   Si       0.61997    0.09188    0.83754    1.000
    N3069    N        0.66245    0.08251    0.84184    1.000
    Si3070   Si       0.73407    0.07156    0.79898    1.000
    N3071    N        0.73204    0.08707    0.84129    1.000
    Si3072   Si       0.66408    0.07261    0.74978    1.000
    N3073    N        0.70658    0.06986    0.75920    1.000
    N3074    N        0.49657    0.08737    0.90726    1.000
    Si3075   Si       0.50079    0.08305    0.95032    1.000
    Si3076   Si       0.60263    0.09294    0.91500    1.000
    N3077    N        0.54155    0.06824    0.95797    1.000
    N3078    N        0.58628    0.12366    0.94445    1.000
    N3079    N        0.68882    0.08198    0.89685    1.000
    Si3080   Si       0.73071    0.12195    0.96744    1.000
    Si3081   Si       0.62970    0.07850    0.98254    1.000
    Si3082   Si       0.66339    0.11226    0.87582    1.000
    N3083    N        0.63679    0.07697    0.94030    1.000
    N3084    N        0.62105    0.11104    0.87789    1.000
    N3085    N        0.53718    0.17652    0.03569    1.000
    Si3086   Si       0.52670    0.14629    0.11009    1.000
    Si3087   Si       0.53786    0.13253    0.03823    1.000
    N3088    N        0.55078    0.12673    0.07855    1.000
    N3089    N        0.61962    0.16390    0.11173    1.000
    N3090    N        0.66240    0.14968    0.04684    1.000
    Si3091   Si       0.64355    0.13846    0.08385    1.000
    Si3092   Si       0.70101    0.16642    0.05597    1.000
    Si3093   Si       0.66472    0.14166    0.00378    1.000
    N3094    N        0.71579    0.17527    0.01568    1.000
    N3095    N        0.73039    0.13849    0.07187    1.000
    N3096    N        0.67818    0.13095    0.10891    1.000
    N3097    N        0.51560    0.14475    0.15239    1.000
    N3098    N        0.53019    0.16606    0.21891    1.000
    Si3099   Si       0.60374    0.14106    0.14634    1.000
    N3100    N        0.57782    0.16679    0.17128    1.000
    Si3101   Si       0.54241    0.14557    0.18462    1.000
    Si3102   Si       0.49968    0.14474    0.24152    1.000
    Si3103   Si       0.56552    0.18081    0.24173    1.000
    N3104    N        0.58164    0.13874    0.24575    1.000
    Si3105   Si       0.69241    0.15539    0.14276    1.000
    N3106    N        0.73167    0.17573    0.13547    1.000
    Si3107   Si       0.66034    0.13248    0.20507    1.000
    N3108    N        0.66205    0.17349    0.21833    1.000
    N3109    N        0.69384    0.12613    0.17708    1.000
    N3110    N        0.59639    0.14716    0.33486    1.000
    Si3111   Si       0.60353    0.18114    0.30616    1.000
    N3112    N        0.63348    0.16415    0.28048    1.000
    Si3113   Si       0.72938    0.14549    0.28006    1.000
    N3114    N        0.70144    0.17969    0.27969    1.000
    N3115    N        0.72601    0.12627    0.35972    1.000
    Si3116   Si       0.61682    0.12577    0.26670    1.000
    Si3117   Si       0.58838    0.16567    0.37291    1.000
    N3118    N        0.56648    0.13560    0.39662    1.000
    Si3119   Si       0.59966    0.13509    0.42424    1.000
    N3120    N        0.59271    0.15601    0.46124    1.000
    N3121    N        0.49527    0.12809    0.39692    1.000
    N3122    N        0.69624    0.15585    0.41385    1.000
    Si3123   Si       0.69068    0.15907    0.46153    1.000
    N3124    N        0.62258    0.16503    0.40136    1.000
    N3125    N        0.54511    0.13617    0.59614    1.000
    N3126    N        0.56379    0.15644    0.52986    1.000
    Si3127   Si       0.52698    0.17057    0.61151    1.000
    N3128    N        0.50353    0.17098    0.50608    1.000
    Si3129   Si       0.59775    0.14531    0.50330    1.000
    N3130    N        0.60957    0.13214    0.56711    1.000
    Si3131   Si       0.62113    0.15539    0.60327    1.000
    Si3132   Si       0.68061    0.15879    0.56932    1.000
    N3133    N        0.66252    0.14517    0.60749    1.000
    N3134    N        0.72365    0.16720    0.56322    1.000
    N3135    N        0.69872    0.17690    0.50039    1.000
    N3136    N        0.62543    0.17901    0.50960    1.000
    N3137    N        0.67303    0.12460    0.54246    1.000
    N3138    N        0.49594    0.15834    0.64001    1.000
    N3139    N        0.53899    0.15687    0.69807    1.000
    Si3140   Si       0.51129    0.13639    0.67292    1.000
    N3141    N        0.60149    0.14314    0.63973    1.000
    Si3142   Si       0.60322    0.18325    0.74835    1.000
    N3143    N        0.62363    0.17456    0.70928    1.000
    Si3144   Si       0.62998    0.12962    0.70808    1.000
    N3145    N        0.72602    0.12793    0.72031    1.000
    N3146    N        0.72783    0.15648    0.65688    1.000
    Si3147   Si       0.70016    0.14915    0.69144    1.000
    N3148    N        0.66185    0.12584    0.67837    1.000
    N3149    N        0.55326    0.16482    0.81606    1.000
    N3150    N        0.57806    0.14580    0.75194    1.000
    Si3151   Si       0.55718    0.17888    0.85757    1.000
    Si3152   Si       0.57237    0.13221    0.79208    1.000
    N3153    N        0.49662    0.12932    0.84982    1.000
    N3154    N        0.68664    0.12911    0.78956    1.000
    Si3155   Si       0.72024    0.12981    0.76326    1.000
    N3156    N        0.63642    0.17681    0.77597    1.000
    N3157    N        0.72964    0.17159    0.77270    1.000
    Si3158   Si       0.64500    0.13293    0.78050    1.000
    Si3159   Si       0.58971    0.13477    0.98665    1.000
    N3160    N        0.55160    0.14746    0.88752    1.000
    N3161    N        0.58933    0.17798    0.99072    1.000
    N3162    N        0.53127    0.17008    0.94865    1.000
    Si3163   Si       0.56791    0.16049    0.92749    1.000
    Si3164   Si       0.50931    0.12742    0.89105    1.000
    N3165    N        0.68475    0.15008    0.87770    1.000
    N3166    N        0.66052    0.17495    0.97568    1.000
    Si3167   Si       0.72013    0.15278    0.90168    1.000
    N3168    N        0.71594    0.15625    0.94522    1.000
    Si3169   Si       0.51497    0.19627    0.06457    1.000
    Si3170   Si       0.56223    0.20218    0.01264    1.000
    N3171    N        0.58070    0.23308    0.04037    1.000
    N3172    N        0.53072    0.19172    0.10441    1.000
    Si3173   Si       0.53848    0.23546    0.11404    1.000
    N3174    N        0.51494    0.24098    0.07001    1.000
    N3175    N        0.63633    0.23130    0.09360    1.000
    N3176    N        0.70042    0.20162    0.08125    1.000
    N3177    N        0.65691    0.22729    0.03004    1.000
    Si3178   Si       0.68705    0.23824    0.05801    1.000
    Si3179   Si       0.73501    0.20998    0.10707    1.000
    N3180    N        0.55112    0.23085    0.15651    1.000
    N3181    N        0.57865    0.21595    0.22105    1.000
    Si3182   Si       0.58106    0.20866    0.17947    1.000
    N3183    N        0.61567    0.22412    0.15919    1.000
    N3184    N        0.72408    0.20113    0.19940    1.000
    N3185    N        0.72951    0.24271    0.13596    1.000
    N3186    N        0.66876    0.18941    0.15121    1.000
    Si3187   Si       0.63558    0.20237    0.12510    1.000
    Si3188   Si       0.68155    0.20049    0.19073    1.000
    N3189    N        0.50444    0.21713    0.31506    1.000
    Si3190   Si       0.54131    0.22566    0.29384    1.000
    Si3191   Si       0.58793    0.23626    0.35172    1.000
    N3192    N        0.56758    0.19331    0.28420    1.000
    N3193    N        0.61903    0.21446    0.33006    1.000
    N3194    N        0.65415    0.22732    0.26852    1.000
    Si3195   Si       0.71371    0.22057    0.29281    1.000
    N3196    N        0.68840    0.23813    0.32549    1.000
    Si3197   Si       0.64881    0.23968    0.31031    1.000
    N3198    N        0.71448    0.24268    0.25390    1.000
    Si3199   Si       0.66231    0.18562    0.25941    1.000
    N3200    N        0.56559    0.20321    0.37110    1.000
    Si3201   Si       0.50152    0.19447    0.46709    1.000
    N3202    N        0.53855    0.19998    0.44677    1.000
    N3203    N        0.59978    0.23053    0.47294    1.000
    Si3204   Si       0.53695    0.21235    0.40356    1.000
    N3205    N        0.50001    0.20081    0.38312    1.000
    Si3206   Si       0.55868    0.23944    0.45887    1.000
    N3207    N        0.73742    0.20154    0.43952    1.000
    Si3208   Si       0.61640    0.19042    0.46782    1.000
    Si3209   Si       0.71830    0.23654    0.41911    1.000
    N3210    N        0.67812    0.22248    0.40441    1.000
    N3211    N        0.65578    0.18449    0.45450    1.000
    Si3212   Si       0.66143    0.18259    0.40997    1.000
    N3213    N        0.52454    0.22897    0.53478    1.000
    N3214    N        0.60904    0.19570    0.59650    1.000
    N3215    N        0.51172    0.18599    0.57457    1.000
    Si3216   Si       0.53311    0.18677    0.53434    1.000
    Si3217   Si       0.48833    0.22092    0.56030    1.000
    Si3218   Si       0.63669    0.22461    0.57622    1.000
    N3219    N        0.66464    0.19836    0.55868    1.000
    Si3220   Si       0.66446    0.19809    0.51460    1.000
    N3221    N        0.66451    0.24084    0.49993    1.000
    Si3222   Si       0.58543    0.21572    0.62742    1.000
    Si3223   Si       0.53331    0.19449    0.71899    1.000
    N3224    N        0.54304    0.20302    0.63543    1.000
    N3225    N        0.51124    0.22437    0.69801    1.000
    N3226    N        0.57128    0.21198    0.73403    1.000
    Si3227   Si       0.50808    0.22694    0.65316    1.000
    Si3228   Si       0.59443    0.23029    0.70012    1.000
    N3229    N        0.61314    0.22194    0.66158    1.000
    N3230    N        0.68798    0.18547    0.71354    1.000
    N3231    N        0.63015    0.23658    0.72393    1.000
    N3232    N        0.67456    0.23340    0.67421    1.000
    Si3233   Si       0.65242    0.20685    0.69878    1.000
    N3234    N        0.74162    0.22857    0.65876    1.000
    N3235    N        0.59404    0.20591    0.85601    1.000
    N3236    N        0.55552    0.23023    0.80032    1.000
    Si3237   Si       0.59284    0.23495    0.82372    1.000
    Si3238   Si       0.52695    0.19710    0.79709    1.000
    N3239    N        0.52409    0.20659    0.86105    1.000
    N3240    N        0.51587    0.18832    0.75772    1.000
    N3241    N        0.69063    0.22751    0.76862    1.000
    Si3242   Si       0.66252    0.20793    0.79572    1.000
    N3243    N        0.63240    0.23765    0.80011    1.000
    N3244    N        0.68933    0.19725    0.82774    1.000
    Si3245   Si       0.72730    0.18744    0.81230    1.000
    Si3246   Si       0.71518    0.20042    0.74538    1.000
    Si3247   Si       0.68594    0.19295    0.87060    1.000
    Si3248   Si       0.51265    0.20778    0.95785    1.000
    N3249    N        0.50825    0.23585    0.92452    1.000
    N3250    N        0.53531    0.22690    0.98869    1.000
    N3251    N        0.60336    0.18516    0.92302    1.000
    Si3252   Si       0.61379    0.21638    0.89383    1.000
    Si3253   Si       0.62102    0.19083    0.96436    1.000
    N3254    N        0.62598    0.23446    0.96694    1.000
    N3255    N        0.70180    0.23025    0.97043    1.000
    N3256    N        0.65761    0.22128    0.88901    1.000
    Si3257   Si       0.66376    0.23799    0.98771    1.000
    N3258    N        0.72503    0.19515    0.89269    1.000
    Si3259   Si       0.70417    0.18713    0.97468    1.000
    N3260    N        0.53579    0.28906    0.02611    1.000
    Si3261   Si       0.55116    0.26087    0.05512    1.000
    N3262    N        0.56447    0.26591    0.09648    1.000
    Si3263   Si       0.72290    0.29095    0.06326    1.000
    Si3264   Si       0.64659    0.27654    0.10105    1.000
    N3265    N        0.63324    0.28612    0.05880    1.000
    N3266    N        0.68952    0.27521    0.08486    1.000
    N3267    N        0.72774    0.25180    0.04436    1.000
    Si3268   Si       0.62137    0.24343    0.05391    1.000
    N3269    N        0.66413    0.28311    0.99546    1.000
    Si3270   Si       0.56465    0.25661    0.23093    1.000
    N3271    N        0.50433    0.26489    0.13227    1.000
    N3272    N        0.54516    0.28225    0.19974    1.000
    Si3273   Si       0.51922    0.25590    0.17236    1.000
    Si3274   Si       0.49269    0.26240    0.24164    1.000
    N3275    N        0.66372    0.27166    0.14273    1.000
    N3276    N        0.66271    0.29854    0.24317    1.000
    Si3277   Si       0.64092    0.25495    0.17286    1.000
    Si3278   Si       0.67542    0.25475    0.24228    1.000
    Si3279   Si       0.70360    0.27512    0.12914    1.000
    N3280    N        0.61997    0.28861    0.18808    1.000
    N3281    N        0.66880    0.24063    0.20327    1.000
    N3282    N        0.56113    0.25515    0.32166    1.000
    Si3283   Si       0.59136    0.28150    0.29679    1.000
    N3284    N        0.59401    0.28128    0.25374    1.000
    Si3285   Si       0.53965    0.29313    0.33712    1.000
    N3286    N        0.50970    0.26735    0.36663    1.000
    N3287    N        0.53059    0.24688    0.25740    1.000
    Si3288   Si       0.63253    0.29220    0.35671    1.000
    N3289    N        0.62979    0.27979    0.31571    1.000
    Si3290   Si       0.72298    0.25395    0.34556    1.000
    N3291    N        0.67281    0.28302    0.37250    1.000
    N3292    N        0.72407    0.29713    0.33427    1.000
    N3293    N        0.55183    0.27207    0.48712    1.000
    Si3294   Si       0.52882    0.28323    0.40058    1.000
    N3295    N        0.55296    0.25149    0.41714    1.000
    N3296    N        0.61160    0.26028    0.37963    1.000
    N3297    N        0.62295    0.29536    0.49800    1.000
    N3298    N        0.71103    0.26984    0.44581    1.000
    N3299    N        0.64828    0.28341    0.43409    1.000
    Si3300   Si       0.69356    0.26925    0.48683    1.000
    Si3301   Si       0.65034    0.25692    0.40056    1.000
    Si3302   Si       0.53364    0.27074    0.52610    1.000
    Si3303   Si       0.58903    0.27661    0.57478    1.000
    N3304    N        0.55371    0.29557    0.55730    1.000
    N3305    N        0.57543    0.25698    0.61127    1.000
    N3306    N        0.61329    0.24974    0.54898    1.000
    Si3307   Si       0.62288    0.25280    0.50514    1.000
    N3308    N        0.65115    0.25387    0.60553    1.000
    N3309    N        0.72945    0.27162    0.51330    1.000
    Si3310   Si       0.65430    0.29367    0.58505    1.000
    N3311    N        0.73899    0.29730    0.58040    1.000
    N3312    N        0.67459    0.29618    0.54737    1.000
    Si3313   Si       0.71743    0.30113    0.54339    1.000
    N3314    N        0.57183    0.26609    0.68651    1.000
    N3315    N        0.51441    0.26841    0.64312    1.000
    Si3316   Si       0.55644    0.27387    0.64659    1.000
    Si3317   Si       0.49260    0.25685    0.72270    1.000
    N3318    N        0.70831    0.27723    0.71630    1.000
    N3319    N        0.63806    0.28832    0.66481    1.000
    N3320    N        0.73233    0.29318    0.65292    1.000
    Si3321   Si       0.64380    0.24935    0.64697    1.000
    Si3322   Si       0.71520    0.24078    0.69243    1.000
    N3323    N        0.59172    0.27855    0.83451    1.000
    N3324    N        0.59390    0.27801    0.76550    1.000
    Si3325   Si       0.55976    0.24821    0.75913    1.000
    N3326    N        0.52498    0.26983    0.75043    1.000
    Si3327   Si       0.58727    0.30420    0.80045    1.000
    Si3328   Si       0.63188    0.25934    0.76256    1.000
    N3329    N        0.66185    0.28939    0.76890    1.000
    Si3330   Si       0.70144    0.26949    0.75994    1.000
    N3331    N        0.73028    0.28227    0.79027    1.000
    N3332    N        0.70335    0.27902    0.86493    1.000
    N3333    N        0.49379    0.28383    0.97178    1.000
    Si3334   Si       0.59959    0.28881    0.87578    1.000
    N3335    N        0.53551    0.28271    0.88034    1.000
    N3336    N        0.56611    0.27818    0.96387    1.000
    Si3337   Si       0.53205    0.27073    0.98768    1.000
    N3338    N        0.60251    0.25631    0.90513    1.000
    Si3339   Si       0.60546    0.26851    0.94721    1.000
    Si3340   Si       0.51794    0.24487    0.88369    1.000
    N3341    N        0.64279    0.29541    0.87324    1.000
    Si3342   Si       0.71999    0.26235    0.94697    1.000
    N3343    N        0.68345    0.28083    0.93026    1.000
    Si3344   Si       0.67126    0.26490    0.89273    1.000
    Si3345   Si       0.53966    0.33156    0.03590    1.000
    N3346    N        0.57515    0.33206    0.06043    1.000
    N3347    N        0.50991    0.35778    0.05755    1.000
    N3348    N        0.53845    0.32698    0.11817    1.000
    Si3349   Si       0.57519    0.30963    0.09802    1.000
    N3350    N        0.61450    0.30655    0.11898    1.000
    Si3351   Si       0.60868    0.35900    0.05513    1.000
    Si3352   Si       0.65848    0.30707    0.03031    1.000
    N3353    N        0.70301    0.31779    0.03442    1.000
    N3354    N        0.63910    0.34608    0.02579    1.000
    Si3355   Si       0.51917    0.31665    0.20618    1.000
    N3356    N        0.53990    0.35362    0.21169    1.000
    N3357    N        0.60645    0.34285    0.21977    1.000
    N3358    N        0.49499    0.32574    0.17018    1.000
    Si3359   Si       0.50326    0.30797    0.12992    1.000
    N3360    N        0.59890    0.35716    0.15586    1.000
    Si3361   Si       0.62163    0.30390    0.22949    1.000
    N3362    N        0.65903    0.34265    0.15885    1.000
    Si3363   Si       0.62136    0.32002    0.15961    1.000
    N3364    N        0.72124    0.31389    0.14369    1.000
    N3365    N        0.71126    0.34036    0.21334    1.000
    Si3366   Si       0.70514    0.34594    0.16886    1.000
    N3367    N        0.57073    0.31571    0.31206    1.000
    N3368    N        0.49977    0.31426    0.32595    1.000
    Si3369   Si       0.57719    0.35836    0.31246    1.000
    Si3370   Si       0.50418    0.35652    0.31925    1.000
    N3371    N        0.50298    0.35877    0.27571    1.000
    N3372    N        0.71380    0.34235    0.27948    1.000
    Si3373   Si       0.69812    0.31619    0.36239    1.000
    N3374    N        0.67756    0.34933    0.34271    1.000
    Si3375   Si       0.68501    0.33589    0.24622    1.000
    N3376    N        0.55496    0.30856    0.37670    1.000
    Si3377   Si       0.54789    0.31059    0.46556    1.000
    Si3378   Si       0.58402    0.33082    0.39904    1.000
    N3379    N        0.58304    0.31731    0.44087    1.000
    N3380    N        0.52920    0.33699    0.49397    1.000
    N3381    N        0.51713    0.30596    0.43628    1.000
    Si3382   Si       0.68492    0.30598    0.43656    1.000
    N3383    N        0.68427    0.31522    0.48054    1.000
    N3384    N        0.70585    0.32929    0.40499    1.000
    N3385    N        0.61956    0.32898    0.37430    1.000
    N3386    N        0.64281    0.34911    0.44975    1.000
    Si3387   Si       0.62312    0.31138    0.45656    1.000
    Si3388   Si       0.71083    0.35060    0.48395    1.000
    Si3389   Si       0.53679    0.32828    0.57718    1.000
    Si3390   Si       0.60651    0.34987    0.60334    1.000
    N3391    N        0.56180    0.35780    0.60261    1.000
    N3392    N        0.49483    0.32020    0.58980    1.000
    N3393    N        0.61408    0.31136    0.58328    1.000
    N3394    N        0.72080    0.34236    0.52645    1.000
    Si3395   Si       0.65490    0.31796    0.51499    1.000
    N3396    N        0.63652    0.35879    0.51647    1.000
    N3397    N        0.67809    0.31776    0.61390    1.000
    Si3398   Si       0.72195    0.31321    0.61638    1.000
    N3399    N        0.51922    0.33748    0.73074    1.000
    N3400    N        0.56886    0.31473    0.64888    1.000
    N3401    N        0.50703    0.33596    0.65674    1.000
    Si3402   Si       0.54815    0.35167    0.64511    1.000
    N3403    N        0.60371    0.32953    0.71474    1.000
    Si3404   Si       0.59915    0.30104    0.68409    1.000
    Si3405   Si       0.49149    0.30364    0.63069    1.000
    Si3406   Si       0.65726    0.32402    0.65065    1.000
    N3407    N        0.62547    0.35208    0.64195    1.000
    Si3408   Si       0.72089    0.31232    0.69210    1.000
    N3409    N        0.68782    0.33933    0.67891    1.000
    N3410    N        0.73808    0.35445    0.62149    1.000
    N3411    N        0.54628    0.31991    0.79612    1.000
    N3412    N        0.51731    0.34437    0.85609    1.000
    Si3413   Si       0.51580    0.30870    0.76662    1.000
    Si3414   Si       0.53916    0.35451    0.81852    1.000
    N3415    N        0.61542    0.33887    0.79990    1.000
    Si3416   Si       0.67910    0.31570    0.85903    1.000
    Si3417   Si       0.65278    0.32743    0.78649    1.000
    N3418    N        0.68185    0.32835    0.81845    1.000
    Si3419   Si       0.72259    0.32241    0.80643    1.000
    N3420    N        0.72523    0.35080    0.77345    1.000
    N3421    N        0.52009    0.34130    0.92466    1.000
    N3422    N        0.58038    0.32498    0.89140    1.000
    Si3423   Si       0.53887    0.32414    0.88872    1.000
    Si3424   Si       0.60134    0.34172    0.92520    1.000
    N3425    N        0.52299    0.34799    0.99645    1.000
    N3426    N        0.69364    0.34799    0.88316    1.000
    N3427    N        0.68442    0.33993    0.97493    1.000
    Si3428   Si       0.72116    0.32524    0.99377    1.000
    Si3429   Si       0.73651    0.34827    0.88220    1.000
    N3430    N        0.62287    0.30846    0.94482    1.000
    Si3431   Si       0.66339    0.30742    0.95722    1.000
    N3432    N        0.55389    0.39586    0.09951    1.000
    N3433    N        0.59229    0.39882    0.04220    1.000
    Si3434   Si       0.50612    0.38385    0.02204    1.000
    Si3435   Si       0.59956    0.41580    0.08474    1.000
    N3436    N        0.53104    0.41837    0.02458    1.000
    Si3437   Si       0.52526    0.36334    0.09904    1.000
    N3438    N        0.49140    0.37290    0.12542    1.000
    N3439    N        0.62296    0.37537    0.09393    1.000
    N3440    N        0.68849    0.39309    0.02835    1.000
    Si3441   Si       0.73137    0.39115    0.01931    1.000
    Si3442   Si       0.66513    0.36902    0.00056    1.000
    Si3443   Si       0.50967    0.36891    0.16909    1.000
    N3444    N        0.54077    0.40162    0.16903    1.000
    N3445    N        0.60035    0.40382    0.20907    1.000
    N3446    N        0.53292    0.41743    0.24092    1.000
    Si3447   Si       0.57945    0.36925    0.19282    1.000
    Si3448   Si       0.51504    0.41883    0.20192    1.000
    Si3449   Si       0.61541    0.37829    0.24531    1.000
    N3450    N        0.72011    0.38148    0.15205    1.000
    N3451    N        0.65610    0.41225    0.14596    1.000
    Si3452   Si       0.63651    0.37491    0.13674    1.000
    N3453    N        0.65778    0.36906    0.24824    1.000
    N3454    N        0.71539    0.41228    0.24068    1.000
    Si3455   Si       0.69870    0.41703    0.13941    1.000
    N3456    N        0.54200    0.37612    0.33102    1.000
    N3457    N        0.57689    0.37317    0.27139    1.000
    Si3458   Si       0.53780    0.37383    0.25182    1.000
    N3459    N        0.61255    0.37826    0.32734    1.000
    Si3460   Si       0.61308    0.41651    0.30599    1.000
    N3461    N        0.74086    0.38985    0.32509    1.000
    N3462    N        0.62549    0.41780    0.26559    1.000
    N3463    N        0.68031    0.40635    0.30031    1.000
    Si3464   Si       0.70304    0.37123    0.31274    1.000
    Si3465   Si       0.67177    0.40917    0.25637    1.000
    Si3466   Si       0.64034    0.36397    0.35739    1.000
    Si3467   Si       0.50321    0.40682    0.45541    1.000
    N3468    N        0.58539    0.37662    0.40717    1.000
    Si3469   Si       0.56776    0.41615    0.40655    1.000
    N3470    N        0.48800    0.37259    0.43497    1.000
    N3471    N        0.62258    0.40724    0.46132    1.000
    Si3472   Si       0.73313    0.36305    0.41337    1.000
    Si3473   Si       0.65092    0.38060    0.48207    1.000
    N3474    N        0.64957    0.38948    0.39172    1.000
    N3475    N        0.69196    0.38980    0.47747    1.000
    Si3476   Si       0.62319    0.37994    0.42633    1.000
    N3477    N        0.71907    0.40602    0.41221    1.000
    N3478    N        0.57531    0.39296    0.53748    1.000
    Si3479   Si       0.55195    0.39219    0.57534    1.000
    Si3480   Si       0.54126    0.37555    0.51586    1.000
    N3481    N        0.52261    0.36397    0.55424    1.000
    N3482    N        0.51773    0.40715    0.49849    1.000
    N3483    N        0.65063    0.42039    0.53194    1.000
    Si3484   Si       0.61830    0.39038    0.53977    1.000
    Si3485   Si       0.65967    0.41173    0.57684    1.000
    N3486    N        0.62502    0.38449    0.58143    1.000
    N3487    N        0.69624    0.38937    0.57880    1.000
    Si3488   Si       0.72679    0.37710    0.54968    1.000
    N3489    N        0.73761    0.41051    0.52359    1.000
    Si3490   Si       0.53795    0.37544    0.74125    1.000
    Si3491   Si       0.53159    0.41143    0.67469    1.000
    N3492    N        0.51992    0.40439    0.71629    1.000
    Si3493   Si       0.60870    0.38681    0.66579    1.000
    N3494    N        0.56449    0.38380    0.66540    1.000
    N3495    N        0.49639    0.40663    0.64851    1.000
    N3496    N        0.58264    0.38525    0.74357    1.000
    Si3497   Si       0.71417    0.38939    0.62061    1.000
    N3498    N        0.63704    0.38646    0.69960    1.000
    Si3499   Si       0.62009    0.36552    0.73482    1.000
    N3500    N        0.70880    0.39452    0.71768    1.000
    Si3501   Si       0.67960    0.37992    0.68748    1.000
    N3502    N        0.68269    0.40083    0.64898    1.000
    N3503    N        0.57208    0.37901    0.83535    1.000
    N3504    N        0.52077    0.37862    0.78551    1.000
    Si3505   Si       0.61292    0.37825    0.81901    1.000
    Si3506   Si       0.55908    0.41673    0.85568    1.000
    N3507    N        0.61597    0.41906    0.79662    1.000
    N3508    N        0.64978    0.38696    0.84397    1.000
    N3509    N        0.71413    0.40772    0.84642    1.000
    Si3510   Si       0.69725    0.38279    0.75819    1.000
    Si3511   Si       0.67800    0.41334    0.82107    1.000
    N3512    N        0.69747    0.41782    0.78296    1.000
    N3513    N        0.65911    0.36038    0.75880    1.000
    Si3514   Si       0.53756    0.36346    0.95804    1.000
    N3515    N        0.52099    0.40436    0.95635    1.000
    Si3516   Si       0.60224    0.40318    0.95994    1.000
    N3517    N        0.57949    0.36775    0.95237    1.000
    Si3518   Si       0.72209    0.41564    0.88753    1.000
    Si3519   Si       0.66415    0.38006    0.88546    1.000
    N3520    N        0.64329    0.39575    0.97464    1.000
    N3521    N        0.68430    0.41083    0.90992    1.000
    N3522    N        0.63238    0.36554    0.90859    1.000
    N3523    N        0.57827    0.45571    0.06852    1.000
    Si3524   Si       0.57121    0.43551    0.02859    1.000
    N3525    N        0.54995    0.47767    0.00983    1.000
    Si3526   Si       0.54893    0.47616    0.09413    1.000
    Si3527   Si       0.61722    0.47398    0.06094    1.000
    N3528    N        0.69226    0.45802    0.03256    1.000
    N3529    N        0.64060    0.43783    0.06934    1.000
    Si3530   Si       0.67911    0.42527    0.05839    1.000
    Si3531   Si       0.73529    0.46426    0.02428    1.000
    Si3532   Si       0.66203    0.47483    0.00316    1.000
    N3533    N        0.70236    0.42019    0.09462    1.000
    N3534    N        0.59661    0.43311    0.12676    1.000
    N3535    N        0.53463    0.45760    0.13162    1.000
    Si3536   Si       0.50074    0.47523    0.15279    1.000
    N3537    N        0.58585    0.46638    0.23898    1.000
    N3538    N        0.49557    0.45634    0.19011    1.000
    Si3539   Si       0.55735    0.41975    0.13427    1.000
    Si3540   Si       0.70400    0.44544    0.21241    1.000
    N3541    N        0.70603    0.44913    0.16904    1.000
    N3542    N        0.66322    0.44183    0.22526    1.000
    N3543    N        0.62131    0.46851    0.18431    1.000
    Si3544   Si       0.63245    0.44993    0.14634    1.000
    Si3545   Si       0.61921    0.44070    0.22206    1.000
    Si3546   Si       0.55662    0.44590    0.26442    1.000
    N3547    N        0.57429    0.43684    0.30518    1.000
    N3548    N        0.50395    0.42723    0.31864    1.000
    Si3549   Si       0.49228    0.46339    0.29828    1.000
    N3550    N        0.55615    0.43532    0.36902    1.000
    Si3551   Si       0.60132    0.47583    0.32083    1.000
    Si3552   Si       0.54331    0.41895    0.33264    1.000
    N3553    N        0.69778    0.47254    0.30009    1.000
    N3554    N        0.63484    0.44882    0.32431    1.000
    Si3555   Si       0.67563    0.44261    0.32207    1.000
    N3556    N        0.69061    0.44422    0.36332    1.000
    Si3557   Si       0.72242    0.47351    0.36787    1.000
    Si3558   Si       0.73387    0.47779    0.27222    1.000
    Si3559   Si       0.54575    0.46629    0.45100    1.000
    N3560    N        0.59389    0.45109    0.41639    1.000
    N3561    N        0.57815    0.45894    0.47894    1.000
    Si3562   Si       0.57011    0.47467    0.38754    1.000
    N3563    N        0.51767    0.47596    0.48177    1.000
    N3564    N        0.53698    0.42372    0.43569    1.000
    N3565    N        0.73013    0.47535    0.41070    1.000
    N3566    N        0.66315    0.44808    0.43016    1.000
    Si3567   Si       0.67994    0.42075    0.39816    1.000
    Si3568   Si       0.71934    0.42311    0.48769    1.000
    Si3569   Si       0.61509    0.44900    0.45483    1.000
    Si3570   Si       0.67475    0.47857    0.45738    1.000
    N3571    N        0.70039    0.46291    0.48967    1.000
    Si3572   Si       0.51344    0.44796    0.51491    1.000
    Si3573   Si       0.54406    0.46773    0.58569    1.000
    N3574    N        0.54200    0.46623    0.54203    1.000
    N3575    N        0.58191    0.47055    0.60880    1.000
    N3576    N        0.53068    0.42613    0.59358    1.000
    Si3577   Si       0.57634    0.47905    0.51986    1.000
    Si3578   Si       0.49021    0.42486    0.60755    1.000
    N3579    N        0.61373    0.47605    0.54342    1.000
    N3580    N        0.65794    0.44514    0.60196    1.000
    Si3581   Si       0.65198    0.46294    0.52340    1.000
    N3582    N        0.51399    0.47408    0.72433    1.000
    N3583    N        0.54547    0.45184    0.66730    1.000
    Si3584   Si       0.58478    0.45914    0.65131    1.000
    Si3585   Si       0.49384    0.43721    0.73288    1.000
    N3586    N        0.61182    0.42601    0.65073    1.000
    N3587    N        0.73086    0.45509    0.67840    1.000
    N3588    N        0.61614    0.45451    0.73725    1.000
    Si3589   Si       0.74134    0.42232    0.70616    1.000
    Si3590   Si       0.65296    0.43597    0.64447    1.000
    N3591    N        0.66287    0.46668    0.67346    1.000
    Si3592   Si       0.63278    0.47725    0.70410    1.000
    N3593    N        0.55881    0.45254    0.77047    1.000
    N3594    N        0.59358    0.44346    0.85421    1.000
    N3595    N        0.52248    0.43487    0.83802    1.000
    Si3596   Si       0.52305    0.45378    0.79955    1.000
    Si3597   Si       0.59208    0.42551    0.75870    1.000
    N3598    N        0.49112    0.43705    0.77562    1.000
    Si3599   Si       0.62183    0.45487    0.82173    1.000
    N3600    N        0.66458    0.45357    0.83133    1.000
    N3601    N        0.73533    0.46885    0.81561    1.000
    Si3602   Si       0.73788    0.43862    0.78385    1.000
    Si3603   Si       0.51759    0.43296    0.92268    1.000
    Si3604   Si       0.53391    0.44049    0.98248    1.000
    N3605    N        0.51723    0.46870    0.94807    1.000
    Si3606   Si       0.58928    0.45054    0.89874    1.000
    N3607    N        0.57645    0.42932    0.98360    1.000
    N3608    N        0.55305    0.42554    0.89858    1.000
    N3609    N        0.66647    0.45699    0.96581    1.000
    Si3610   Si       0.65710    0.42305    0.94145    1.000
    N3611    N        0.61793    0.43187    0.92575    1.000
    N3612    N        0.55623    0.51671    0.10902    1.000
    N3613    N        0.50947    0.52715    0.02730    1.000
    Si3614   Si       0.58488    0.50403    0.00462    1.000
    Si3615   Si       0.51306    0.48499    0.02895    1.000
    N3616    N        0.51182    0.47956    0.07195    1.000
    N3617    N        0.62127    0.51108    0.08082    1.000
    Si3618   Si       0.65513    0.51883    0.10668    1.000
    N3619    N        0.68824    0.51855    0.07761    1.000
    Si3620   Si       0.72676    0.52341    0.09675    1.000
    Si3621   Si       0.68447    0.53257    0.03475    1.000
    N3622    N        0.67858    0.51254    0.99701    1.000
    N3623    N        0.62005    0.48050    0.01868    1.000
    N3624    N        0.50050    0.51169    0.23202    1.000
    N3625    N        0.50754    0.51647    0.16089    1.000
    Si3626   Si       0.50027    0.53727    0.19785    1.000
    N3627    N        0.62124    0.52704    0.22180    1.000
    Si3628   Si       0.69318    0.48826    0.15504    1.000
    N3629    N        0.65772    0.48215    0.13055    1.000
    Si3630   Si       0.71270    0.51714    0.21321    1.000
    N3631    N        0.67802    0.51000    0.18813    1.000
    Si3632   Si       0.63332    0.50961    0.18334    1.000
    N3633    N        0.72823    0.49565    0.13127    1.000
    N3634    N        0.72154    0.47916    0.23141    1.000
    Si3635   Si       0.52490    0.51852    0.26678    1.000
    N3636    N        0.59114    0.49759    0.35800    1.000
    N3637    N        0.61074    0.50624    0.29017    1.000
    Si3638   Si       0.49095    0.53056    0.33355    1.000
    Si3639   Si       0.59474    0.50638    0.25043    1.000
    N3640    N        0.51460    0.53931    0.37171    1.000
    N3641    N        0.53135    0.47939    0.28235    1.000
    Si3642   Si       0.70146    0.51399    0.31324    1.000
    N3643    N        0.71318    0.51434    0.35630    1.000
    N3644    N        0.66710    0.53944    0.31503    1.000
    Si3645   Si       0.49776    0.51344    0.47889    1.000
    Si3646   Si       0.50496    0.51255    0.40492    1.000
    N3647    N        0.54092    0.49019    0.41487    1.000
    N3648    N        0.49652    0.53646    0.44049    1.000
    N3649    N        0.63822    0.47869    0.48177    1.000
    Si3650   Si       0.72575    0.51332    0.43087    1.000
    N3651    N        0.67999    0.51773    0.43909    1.000
    Si3652   Si       0.61659    0.51825    0.48723    1.000
    N3653    N        0.57996    0.52521    0.57401    1.000
    N3654    N        0.52192    0.50162    0.60552    1.000
    N3655    N        0.57726    0.52199    0.50772    1.000
    Si3656   Si       0.60971    0.49137    0.58334    1.000
    Si3657   Si       0.55188    0.53375    0.60364    1.000
    N3658    N        0.64469    0.51236    0.59912    1.000
    Si3659   Si       0.71519    0.48891    0.52159    1.000
    N3660    N        0.70989    0.53266    0.51758    1.000
    Si3661   Si       0.67938    0.48373    0.59395    1.000
    N3662    N        0.68542    0.48040    0.55173    1.000
    Si3663   Si       0.51850    0.48319    0.68117    1.000
    Si3664   Si       0.57578    0.52762    0.67744    1.000
    N3665    N        0.60063    0.49175    0.67998    1.000
    N3666    N        0.53415    0.52173    0.68720    1.000
    N3667    N        0.64487    0.51212    0.73057    1.000
    Si3668   Si       0.70190    0.48489    0.67014    1.000
    N3669    N        0.70876    0.51714    0.69877    1.000
    N3670    N        0.71055    0.48555    0.62616    1.000
    N3671    N        0.51833    0.49549    0.79289    1.000
    Si3672   Si       0.54198    0.48954    0.75412    1.000
    N3673    N        0.49574    0.49685    0.86054    1.000
    Si3674   Si       0.49282    0.51701    0.81914    1.000
    N3675    N        0.57571    0.51681    0.75050    1.000
    Si3676   Si       0.61206    0.49571    0.75631    1.000
    Si3677   Si       0.69669    0.48370    0.82985    1.000
    N3678    N        0.61914    0.49312    0.79927    1.000
    N3679    N        0.68243    0.51772    0.80337    1.000
    Si3680   Si       0.64181    0.52555    0.82090    1.000
    N3681    N        0.62584    0.52126    0.86195    1.000
    N3682    N        0.70079    0.50572    0.86832    1.000
    Si3683   Si       0.58578    0.52272    0.87895    1.000
    N3684    N        0.57404    0.48968    0.90455    1.000
    Si3685   Si       0.54925    0.50056    0.93918    1.000
    N3686    N        0.58176    0.51879    0.96355    1.000
    Si3687   Si       0.51082    0.53067    0.88292    1.000
    N3688    N        0.52179    0.53378    0.92718    1.000
    Si3689   Si       0.68296    0.53000    0.95829    1.000
    Si3690   Si       0.72535    0.49302    0.90091    1.000
    N3691    N        0.71513    0.50634    0.93893    1.000
    N3692    N        0.60144    0.57504    0.08776    1.000
    Si3693   Si       0.54062    0.55659    0.02229    1.000
    N3694    N        0.53016    0.58674    0.05266    1.000
    Si3695   Si       0.61164    0.54713    0.05547    1.000
    N3696    N        0.49232    0.54528    0.09745    1.000
    N3697    N        0.57973    0.53864    0.02818    1.000
    Si3698   Si       0.49035    0.57853    0.06996    1.000
    N3699    N        0.64911    0.55906    0.03645    1.000
    N3700    N        0.71849    0.55664    0.03364    1.000
    N3701    N        0.72447    0.56794    0.10171    1.000
    Si3702   Si       0.72038    0.58864    0.06342    1.000
    Si3703   Si       0.58607    0.54954    0.12068    1.000
    N3704    N        0.52745    0.57103    0.20178    1.000
    N3705    N        0.54992    0.57196    0.13764    1.000
    Si3706   Si       0.55196    0.57601    0.23598    1.000
    N3707    N        0.58843    0.59199    0.21564    1.000
    Si3708   Si       0.52344    0.53806    0.12718    1.000
    N3709    N        0.61271    0.53805    0.15392    1.000
    N3710    N        0.65347    0.58016    0.19769    1.000
    Si3711   Si       0.70060    0.58502    0.13297    1.000
    N3712    N        0.71861    0.58222    0.17319    1.000
    Si3713   Si       0.62479    0.56963    0.22802    1.000
    Si3714   Si       0.69350    0.58415    0.20964    1.000
    N3715    N        0.66638    0.55735    0.12815    1.000
    Si3716   Si       0.63815    0.57435    0.15688    1.000
    N3717    N        0.70330    0.55109    0.23887    1.000
    Si3718   Si       0.51609    0.58706    0.30142    1.000
    N3719    N        0.54242    0.58738    0.33552    1.000
    N3720    N        0.50874    0.54333    0.29667    1.000
    N3721    N        0.60914    0.56500    0.33486    1.000
    N3722    N        0.56167    0.53542    0.25089    1.000
    Si3723   Si       0.60387    0.53972    0.37068    1.000
    N3724    N        0.69840    0.58331    0.36206    1.000
    N3725    N        0.63108    0.57616    0.26831    1.000
    Si3726   Si       0.72734    0.58097    0.26326    1.000
    Si3727   Si       0.65925    0.56777    0.34842    1.000
    Si3728   Si       0.62658    0.54644    0.29879    1.000
    Si3729   Si       0.72970    0.55365    0.36990    1.000
    N3730    N        0.72723    0.59870    0.30294    1.000
    Si3731   Si       0.53723    0.57687    0.37894    1.000
    Si3732   Si       0.51008    0.57750    0.44540    1.000
    N3733    N        0.54951    0.56762    0.46209    1.000
    Si3734   Si       0.58663    0.57036    0.43753    1.000
    N3735    N        0.57731    0.56212    0.39462    1.000
    N3736    N        0.66561    0.58787    0.43715    1.000
    Si3737   Si       0.69191    0.58837    0.47109    1.000
    Si3738   Si       0.65047    0.54713    0.42794    1.000
    N3739    N        0.73387    0.58261    0.47294    1.000
    N3740    N        0.64460    0.54643    0.38405    1.000
    N3741    N        0.61569    0.54028    0.45141    1.000
    N3742    N        0.56842    0.58085    0.53143    1.000
    N3743    N        0.52899    0.57146    0.60259    1.000
    Si3744   Si       0.59896    0.54805    0.54204    1.000
    N3745    N        0.50676    0.54246    0.50810    1.000
    Si3746   Si       0.54777    0.55419    0.50262    1.000
    N3747    N        0.49141    0.59619    0.54793    1.000
    N3748    N        0.61839    0.58005    0.56817    1.000
    Si3749   Si       0.67590    0.55385    0.53259    1.000
    Si3750   Si       0.71675    0.57814    0.59718    1.000
    N3751    N        0.68340    0.56372    0.57350    1.000
    Si3752   Si       0.64646    0.55759    0.59666    1.000
    N3753    N        0.67571    0.58981    0.50907    1.000
    N3754    N        0.63651    0.53777    0.52074    1.000
    N3755    N        0.52442    0.56748    0.73832    1.000
    Si3756   Si       0.60368    0.57497    0.65002    1.000
    Si3757   Si       0.50975    0.55866    0.69634    1.000
    N3758    N        0.59675    0.56367    0.69038    1.000
    N3759    N        0.51832    0.58965    0.66912    1.000
    N3760    N        0.57757    0.54358    0.63733    1.000
    Si3761   Si       0.54350    0.59799    0.63325    1.000
    N3762    N        0.71353    0.57430    0.63883    1.000
    Si3763   Si       0.62550    0.58454    0.71366    1.000
    Si3764   Si       0.68191    0.53883    0.72352    1.000
    Si3765   Si       0.67781    0.58530    0.65992    1.000
    N3766    N        0.66524    0.57086    0.69919    1.000
    N3767    N        0.64354    0.57700    0.63431    1.000
    Si3768   Si       0.72362    0.59918    0.73602    1.000
    N3769    N        0.56509    0.57304    0.79663    1.000
    N3770    N        0.50271    0.55971    0.81382    1.000
    Si3771   Si       0.54189    0.57535    0.83304    1.000
    Si3772   Si       0.49671    0.57544    0.77077    1.000
    Si3773   Si       0.56788    0.56016    0.75386    1.000
    Si3774   Si       0.60588    0.58879    0.79542    1.000
    N3775    N        0.60823    0.57939    0.75242    1.000
    N3776    N        0.54983    0.53977    0.86077    1.000
    N3777    N        0.70623    0.56212    0.75415    1.000
    N3778    N        0.63587    0.56814    0.81625    1.000
    N3779    N        0.70773    0.57748    0.82875    1.000
    Si3780   Si       0.71173    0.54927    0.79456    1.000
    Si3781   Si       0.66847    0.58993    0.83773    1.000
    Si3782   Si       0.51771    0.57322    0.94360    1.000
    N3783    N        0.53496    0.57819    0.98297    1.000
    N3784    N        0.59646    0.55839    0.90630    1.000
    Si3785   Si       0.60409    0.55244    0.94987    1.000
    N3786    N        0.59522    0.59270    0.96433    1.000
    Si3787   Si       0.64177    0.54678    0.89473    1.000
    N3788    N        0.66038    0.58223    0.88072    1.000
    N3789    N        0.70419    0.56700    0.95618    1.000
    N3790    N        0.64692    0.53775    0.93723    1.000
    N3791    N        0.56805    0.63401    0.01267    1.000
    N3792    N        0.57539    0.64279    0.08465    1.000
    Si3793   Si       0.54937    0.62549    0.05225    1.000
    Si3794   Si       0.61215    0.61922    0.09205    1.000
    Si3795   Si       0.60643    0.65405    0.02095    1.000
    N3796    N        0.51627    0.65351    0.05014    1.000
    N3797    N        0.62390    0.62214    0.04500    1.000
    N3798    N        0.68404    0.61013    0.07231    1.000
    N3799    N        0.68462    0.61962    0.00589    1.000
    Si3800   Si       0.66027    0.60044    0.03639    1.000
    Si3801   Si       0.67335    0.65390    0.07466    1.000
    Si3802   Si       0.58608    0.63272    0.20178    1.000
    N3803    N        0.55260    0.63655    0.17371    1.000
    Si3804   Si       0.53114    0.59738    0.16612    1.000
    Si3805   Si       0.64343    0.64688    0.14764    1.000
    N3806    N        0.62142    0.61035    0.13984    1.000
    N3807    N        0.71096    0.61349    0.23640    1.000
    N3808    N        0.62436    0.65069    0.18936    1.000
    Si3809   Si       0.71856    0.64892    0.12719    1.000
    N3810    N        0.68222    0.62642    0.14228    1.000
    N3811    N        0.59367    0.62372    0.29783    1.000
    N3812    N        0.57885    0.63125    0.36585    1.000
    Si3813   Si       0.58476    0.60146    0.33270    1.000
    N3814    N        0.52775    0.60365    0.26180    1.000
    Si3815   Si       0.56527    0.65060    0.27882    1.000
    Si3816   Si       0.48807    0.61987    0.25644    1.000
    N3817    N        0.53241    0.65378    0.30921    1.000
    Si3818   Si       0.63492    0.61654    0.28560    1.000
    Si3819   Si       0.70036    0.61219    0.33117    1.000
    N3820    N        0.65725    0.60688    0.32248    1.000
    N3821    N        0.65311    0.64492    0.26004    1.000
    Si3822   Si       0.69705    0.65067    0.24952    1.000
    N3823    N        0.70337    0.65468    0.34085    1.000
    Si3824   Si       0.58899    0.63849    0.47614    1.000
    Si3825   Si       0.52472    0.64600    0.41321    1.000
    Si3826   Si       0.59421    0.63633    0.40613    1.000
    N3827    N        0.59759    0.61119    0.44452    1.000
    N3828    N        0.52198    0.60270    0.41211    1.000
    N3829    N        0.55137    0.64504    0.49277    1.000
    N3830    N        0.48827    0.59799    0.47517    1.000
    Si3831   Si       0.66173    0.63033    0.43407    1.000
    N3832    N        0.66169    0.64698    0.47436    1.000
    N3833    N        0.69945    0.64139    0.41617    1.000
    N3834    N        0.63311    0.65499    0.40950    1.000
    Si3835   Si       0.59437    0.61044    0.54807    1.000
    N3836    N        0.58207    0.64079    0.57671    1.000
    Si3837   Si       0.54195    0.65527    0.59453    1.000
    N3838    N        0.61400    0.62841    0.51514    1.000
    Si3839   Si       0.65735    0.62916    0.51357    1.000
    N3840    N        0.71697    0.62296    0.59326    1.000
    Si3841   Si       0.71760    0.64566    0.55691    1.000
    N3842    N        0.52064    0.63690    0.62694    1.000
    Si3843   Si       0.50269    0.63064    0.66677    1.000
    N3844    N        0.50618    0.64686    0.70685    1.000
    N3845    N        0.58179    0.61047    0.64343    1.000
    Si3846   Si       0.60072    0.64454    0.66738    1.000
    Si3847   Si       0.67113    0.64229    0.69701    1.000
    N3848    N        0.69552    0.63143    0.72969    1.000
    N3849    N        0.63045    0.62428    0.69426    1.000
    Si3850   Si       0.71423    0.64826    0.62939    1.000
    N3851    N        0.68917    0.62882    0.65918    1.000
    Si3852   Si       0.57515    0.64443    0.83580    1.000
    Si3853   Si       0.50564    0.64096    0.81182    1.000
    N3854    N        0.50517    0.61345    0.84599    1.000
    N3855    N        0.56579    0.60505    0.85781    1.000
    N3856    N        0.60579    0.62867    0.80774    1.000
    N3857    N        0.49530    0.61934    0.77441    1.000
    N3858    N        0.66787    0.63367    0.83422    1.000
    Si3859   Si       0.69947    0.65395    0.85682    1.000
    N3860    N        0.49129    0.64640    0.90029    1.000
    Si3861   Si       0.52853    0.62545    0.88349    1.000
    Si3862   Si       0.55428    0.61878    0.97330    1.000
    N3863    N        0.51313    0.64076    0.97160    1.000
    N3864    N        0.61159    0.62749    0.90507    1.000
    N3865    N        0.57287    0.65482    0.95168    1.000
    N3866    N        0.54389    0.60128    0.91825    1.000
    Si3867   Si       0.58102    0.59768    0.89830    1.000
    Si3868   Si       0.61682    0.62848    0.95269    1.000
    N3869    N        0.68283    0.65296    0.89783    1.000
    Si3870   Si       0.65516    0.61912    0.90188    1.000
    Si3871   Si       0.69639    0.60825    0.96684    1.000
    N3872    N        0.65870    0.61683    0.94538    1.000
    Si3873   Si       0.51075    0.67888    0.08669    1.000
    Si3874   Si       0.57991    0.68519    0.08112    1.000
    N3875    N        0.59580    0.69124    0.04228    1.000
    N3876    N        0.54186    0.70796    0.08782    1.000
    Si3877   Si       0.50192    0.65924    0.01037    1.000
    N3878    N        0.59858    0.70919    0.11123    1.000
    N3879    N        0.51347    0.69737    0.99460    1.000
    N3880    N        0.71211    0.66837    0.08723    1.000
    N3881    N        0.66758    0.67533    0.03429    1.000
    Si3882   Si       0.71871    0.70218    0.06138    1.000
    Si3883   Si       0.64078    0.70243    0.11523    1.000
    Si3884   Si       0.66898    0.65982    0.99489    1.000
    N3885    N        0.64033    0.65662    0.10263    1.000
    Si3886   Si       0.72222    0.70767    0.99249    1.000
    N3887    N        0.49652    0.67914    0.18856    1.000
    Si3888   Si       0.50147    0.69709    0.22646    1.000
    Si3889   Si       0.52884    0.67236    0.16231    1.000
    Si3890   Si       0.58012    0.69928    0.24190    1.000
    N3891    N        0.51199    0.65639    0.12370    1.000
    N3892    N        0.57232    0.65515    0.23624    1.000
    N3893    N        0.65969    0.69155    0.15166    1.000
    Si3894   Si       0.64103    0.67100    0.22501    1.000
    N3895    N        0.68504    0.67891    0.21724    1.000
    N3896    N        0.72739    0.67700    0.15722    1.000
    Si3897   Si       0.69334    0.69529    0.17776    1.000
    N3898    N        0.62013    0.71033    0.22982    1.000
    N3899    N        0.56271    0.70291    0.34969    1.000
    Si3900   Si       0.50056    0.68010    0.29624    1.000
    N3901    N        0.58094    0.69381    0.28446    1.000
    Si3902   Si       0.54937    0.66127    0.35044    1.000
    N3903    N        0.72432    0.67201    0.27457    1.000
    Si3904   Si       0.73402    0.67681    0.31710    1.000
    N3905    N        0.51205    0.66231    0.37533    1.000
    N3906    N        0.60160    0.68158    0.46830    1.000
    Si3907   Si       0.50250    0.69871    0.45948    1.000
    Si3908   Si       0.57647    0.70242    0.43662    1.000
    N3909    N        0.56412    0.66160    0.42075    1.000
    N3910    N        0.49412    0.66070    0.44147    1.000
    Si3911   Si       0.70274    0.66909    0.38197    1.000
    N3912    N        0.66089    0.71141    0.44471    1.000
    Si3913   Si       0.64603    0.68685    0.47490    1.000
    Si3914   Si       0.64124    0.69797    0.40697    1.000
    N3915    N        0.67438    0.70216    0.37845    1.000
    Si3916   Si       0.53389    0.67405    0.52030    1.000
    Si3917   Si       0.60201    0.67146    0.60036    1.000
    N3918    N        0.56259    0.68910    0.61234    1.000
    N3919    N        0.56009    0.70929    0.51997    1.000
    N3920    N        0.51983    0.65702    0.55799    1.000
    Si3921   Si       0.59943    0.71148    0.50117    1.000
    N3922    N        0.49473    0.68095    0.50034    1.000
    N3923    N        0.73631    0.68245    0.56130    1.000
    N3924    N        0.64158    0.70468    0.51279    1.000
    N3925    N        0.62435    0.70097    0.57863    1.000
    Si3926   Si       0.65725    0.69343    0.55025    1.000
    Si3927   Si       0.71432    0.70805    0.59261    1.000
    N3928    N        0.67550    0.65502    0.54573    1.000
    N3929    N        0.69012    0.68272    0.61623    1.000
    N3930    N        0.56029    0.69372    0.74477    1.000
    Si3931   Si       0.53691    0.67612    0.71281    1.000
    N3932    N        0.56682    0.66972    0.68051    1.000
    Si3933   Si       0.55377    0.70766    0.65683    1.000
    N3934    N        0.52368    0.71327    0.69456    1.000
    Si3935   Si       0.65778    0.68997    0.64490    1.000
    N3936    N        0.62422    0.70930    0.73673    1.000
    N3937    N        0.66623    0.68516    0.68837    1.000
    N3938    N        0.62257    0.66494    0.63681    1.000
    Si3939   Si       0.54680    0.69944    0.78605    1.000
    N3940    N        0.60696    0.67311    0.85031    1.000
    N3941    N        0.54372    0.66278    0.81215    1.000
    Si3942   Si       0.59724    0.71741    0.84321    1.000
    N3943    N        0.58457    0.71811    0.80198    1.000
    Si3944   Si       0.63555    0.65722    0.81911    1.000
    N3945    N        0.70174    0.69336    0.84402    1.000
    N3946    N        0.64771    0.69523    0.80247    1.000
    N3947    N        0.49505    0.70745    0.87413    1.000
    Si3948   Si       0.60134    0.68788    0.95955    1.000
    Si3949   Si       0.53482    0.67718    0.96149    1.000
    Si3950   Si       0.53406    0.70001    0.89030    1.000
    Si3951   Si       0.59710    0.66831    0.89252    1.000
    N3952    N        0.53204    0.70757    0.93208    1.000
    N3953    N        0.55264    0.66163    0.88382    1.000
    N3954    N        0.61177    0.70001    0.91871    1.000
    Si3955   Si       0.69984    0.67794    0.92734    1.000
    N3956    N        0.69858    0.67803    0.97110    1.000
    N3957    N        0.62733    0.66012    0.98217    1.000
    N3958    N        0.57353    0.75803    0.03929    1.000
    Si3959   Si       0.53977    0.74705    0.06453    1.000
    Si3960   Si       0.59450    0.72793    0.01747    1.000
    N3961    N        0.50003    0.74720    0.04693    1.000
    Si3962   Si       0.49872    0.73627    0.00370    1.000
    N3963    N        0.54938    0.76986    0.10083    1.000
    Si3964   Si       0.56221    0.73167    0.12089    1.000
    N3965    N        0.63634    0.74189    0.01701    1.000
    N3966    N        0.70323    0.72800    0.02831    1.000
    N3967    N        0.66774    0.71735    0.08414    1.000
    Si3968   Si       0.66183    0.71878    0.04195    1.000
    Si3969   Si       0.71311    0.76664    0.05523    1.000
    N3970    N        0.73818    0.73591    0.07957    1.000
    N3971    N        0.59352    0.75127    0.18084    1.000
    Si3972   Si       0.55152    0.74330    0.19161    1.000
    N3973    N        0.54360    0.72259    0.22918    1.000
    N3974    N        0.54514    0.71522    0.15836    1.000
    Si3975   Si       0.69622    0.77033    0.18473    1.000
    N3976    N        0.71506    0.73176    0.18500    1.000
    Si3977   Si       0.62433    0.75011    0.21622    1.000
    N3978    N        0.65477    0.76771    0.19109    1.000
    N3979    N        0.57277    0.76052    0.30679    1.000
    Si3980   Si       0.51928    0.74436    0.25955    1.000
    N3981    N        0.52159    0.71731    0.29218    1.000
    Si3982   Si       0.56061    0.71946    0.31018    1.000
    Si3983   Si       0.58841    0.73308    0.36812    1.000
    Si3984   Si       0.61218    0.76749    0.31903    1.000
    Si3985   Si       0.72215    0.74732    0.29299    1.000
    Si3986   Si       0.66626    0.73394    0.34872    1.000
    N3987    N        0.62380    0.73008    0.34049    1.000
    N3988    N        0.68250    0.74212    0.30994    1.000
    N3989    N        0.73798    0.73736    0.25388    1.000
    N3990    N        0.59832    0.74537    0.47467    1.000
    N3991    N        0.55153    0.75652    0.38668    1.000
    Si3992   Si       0.51684    0.75030    0.41442    1.000
    N3993    N        0.53535    0.71977    0.44151    1.000
    N3994    N        0.60444    0.71953    0.40559    1.000
    N3995    N        0.72266    0.72592    0.48165    1.000
    Si3996   Si       0.69723    0.73725    0.44713    1.000
    Si3997   Si       0.63265    0.76717    0.45709    1.000
    N3998    N        0.72407    0.74585    0.41483    1.000
    N3999    N        0.66863    0.76879    0.37459    1.000
    N4000    N        0.52565    0.74376    0.56766    1.000
    Si4001   Si       0.53743    0.74619    0.52719    1.000
    N4002    N        0.58788    0.75269    0.60173    1.000
    Si4003   Si       0.55225    0.72920    0.59782    1.000
    N4004    N        0.49633    0.74607    0.51340    1.000
    Si4005   Si       0.73159    0.75977    0.50603    1.000
    Si4006   Si       0.63084    0.74137    0.59616    1.000
    N4007    N        0.68566    0.72482    0.56721    1.000
    Si4008   Si       0.68552    0.76944    0.56753    1.000
    N4009    N        0.58652    0.76149    0.73104    1.000
    N4010    N        0.58979    0.72869    0.67493    1.000
    N4011    N        0.52973    0.73636    0.63437    1.000
    Si4012   Si       0.58530    0.71910    0.71979    1.000
    Si4013   Si       0.49656    0.74632    0.70089    1.000
    N4014    N        0.51093    0.77283    0.73194    1.000
    Si4015   Si       0.50557    0.77191    0.63426    1.000
    Si4016   Si       0.62276    0.75583    0.66444    1.000
    N4017    N        0.64697    0.73304    0.63602    1.000
    Si4018   Si       0.66185    0.71934    0.71593    1.000
    N4019    N        0.64889    0.75772    0.70092    1.000
    N4020    N        0.70063    0.72667    0.73227    1.000
    Si4021   Si       0.50627    0.76266    0.77467    1.000
    N4022    N        0.50680    0.72043    0.78559    1.000
    N4023    N        0.56456    0.72660    0.87061    1.000
    Si4024   Si       0.72621    0.76442    0.84808    1.000
    N4025    N        0.68992    0.75776    0.82271    1.000
    N4026    N        0.63788    0.76181    0.77622    1.000
    N4027    N        0.63632    0.73287    0.85930    1.000
    Si4028   Si       0.66955    0.71940    0.83345    1.000
    Si4029   Si       0.62149    0.72056    0.77823    1.000
    Si4030   Si       0.55447    0.77023    0.87977    1.000
    N4031    N        0.52965    0.76366    0.98442    1.000
    Si4032   Si       0.55092    0.74233    0.95386    1.000
    N4033    N        0.55790    0.77045    0.92110    1.000
    N4034    N        0.58067    0.71954    0.97854    1.000
    N4035    N        0.73143    0.74354    0.96389    1.000
    Si4036   Si       0.64076    0.73085    0.90331    1.000
    N4037    N        0.68144    0.71620    0.91769    1.000
    N4038    N        0.73354    0.74254    0.88721    1.000
    N4039    N        0.64104    0.76979    0.91986    1.000
    Si4040   Si       0.71167    0.74680    0.92350    1.000
    Si4041   Si       0.58794    0.80011    0.04382    1.000
    Si4042   Si       0.51393    0.79809    0.10885    1.000
    N4043    N        0.55537    0.82582    0.03127    1.000
    N4044    N        0.50352    0.82530    0.07714    1.000
    N4045    N        0.61128    0.82065    0.07306    1.000
    N4046    N        0.61336    0.80572    0.00847    1.000
    Si4047   Si       0.53270    0.80537    0.99804    1.000
    N4048    N        0.49352    0.81934    0.00666    1.000
    N4049    N        0.63627    0.77810    0.11915    1.000
    Si4050   Si       0.64872    0.80294    0.08630    1.000
    N4051    N        0.73660    0.78647    0.02056    1.000
    Si4052   Si       0.64964    0.78338    0.01481    1.000
    N4053    N        0.67164    0.78325    0.05457    1.000
    N4054    N        0.73227    0.79569    0.08558    1.000
    Si4055   Si       0.70983    0.81601    0.11567    1.000
    N4056    N        0.67182    0.83400    0.10281    1.000
    N4057    N        0.60544    0.81509    0.17232    1.000
    Si4058   Si       0.57929    0.80442    0.21012    1.000
    N4059    N        0.54303    0.78649    0.19683    1.000
    N4060    N        0.52509    0.82484    0.14194    1.000
    Si4061   Si       0.50949    0.81347    0.18118    1.000
    N4062    N        0.60558    0.78241    0.23593    1.000
    Si4063   Si       0.62434    0.77664    0.15939    1.000
    N4064    N        0.72177    0.79053    0.21510    1.000
    Si4065   Si       0.73146    0.83254    0.21578    1.000
    N4066    N        0.70649    0.78977    0.14826    1.000
    Si4067   Si       0.54833    0.79802    0.29861    1.000
    N4068    N        0.53149    0.80751    0.33735    1.000
    N4069    N        0.52021    0.78446    0.27145    1.000
    N4070    N        0.57840    0.82512    0.28262    1.000
    N4071    N        0.60105    0.78424    0.35816    1.000
    Si4072   Si       0.55839    0.79323    0.36797    1.000
    Si4073   Si       0.49245    0.82127    0.34974    1.000
    Si4074   Si       0.61660    0.80998    0.26679    1.000
    N4075    N        0.63661    0.79844    0.30353    1.000
    N4076    N        0.70605    0.82592    0.33462    1.000
    Si4077   Si       0.66385    0.82353    0.32749    1.000
    N4078    N        0.64644    0.83183    0.36607    1.000
    N4079    N        0.49791    0.78503    0.43328    1.000
    N4080    N        0.56045    0.80665    0.46012    1.000
    Si4081   Si       0.51889    0.81810    0.45766    1.000
    Si4082   Si       0.58493    0.82167    0.42774    1.000
    Si4083   Si       0.58250    0.78561    0.48847    1.000
    N4084    N        0.56086    0.82714    0.39266    1.000
    N4085    N        0.49954    0.81620    0.49757    1.000
    N4086    N        0.61711    0.79156    0.42251    1.000
    N4087    N        0.70989    0.81734    0.40962    1.000
    N4088    N        0.67579    0.77591    0.45275    1.000
    Si4089   Si       0.63435    0.79395    0.38394    1.000
    N4090    N        0.62473    0.80036    0.48913    1.000
    Si4091   Si       0.68158    0.81954    0.44257    1.000
    Si4092   Si       0.71075    0.77940    0.38842    1.000
    Si4093   Si       0.56697    0.81954    0.54557    1.000
    N4094    N        0.59179    0.81863    0.58144    1.000
    N4095    N        0.56622    0.78047    0.52762    1.000
    Si4096   Si       0.58032    0.79358    0.61550    1.000
    Si4097   Si       0.63576    0.82028    0.57741    1.000
    N4098    N        0.71277    0.78802    0.59467    1.000
    Si4099   Si       0.66343    0.80796    0.50912    1.000
    N4100    N        0.69563    0.77922    0.52577    1.000
    N4101    N        0.64575    0.77770    0.57836    1.000
    Si4102   Si       0.73152    0.82530    0.50215    1.000
    N4103    N        0.49396    0.78225    0.67565    1.000
    N4104    N        0.53737    0.80239    0.62973    1.000
    Si4105   Si       0.55357    0.78840    0.73690    1.000
    N4106    N        0.55808    0.81862    0.70322    1.000
    Si4107   Si       0.53487    0.82605    0.66869    1.000
    N4108    N        0.61477    0.79628    0.64591    1.000
    N4109    N        0.68277    0.82484    0.66126    1.000
    Si4110   Si       0.64118    0.82976    0.65288    1.000
    N4111    N        0.62717    0.81619    0.73313    1.000
    Si4112   Si       0.71098    0.81750    0.62830    1.000
    Si4113   Si       0.62747    0.77440    0.73572    1.000
    N4114    N        0.72533    0.80047    0.71532    1.000
    N4115    N        0.57645    0.78887    0.84673    1.000
    Si4116   Si       0.55219    0.80865    0.81504    1.000
    Si4117   Si       0.60689    0.81912    0.84333    1.000
    N4118    N        0.54351    0.78553    0.77972    1.000
    Si4119   Si       0.50414    0.81856    0.86894    1.000
    N4120    N        0.51401    0.82513    0.82630    1.000
    N4121    N        0.51143    0.77404    0.87069    1.000
    N4122    N        0.72453    0.80696    0.85969    1.000
    N4123    N        0.64791    0.81415    0.82898    1.000
    N4124    N        0.68652    0.80903    0.77109    1.000
    Si4125   Si       0.66542    0.78733    0.80038    1.000
    Si4126   Si       0.72760    0.79829    0.75987    1.000
    Si4127   Si       0.53409    0.80589    0.93064    1.000
    N4128    N        0.55216    0.82808    0.96444    1.000
    N4129    N        0.49265    0.80387    0.94335    1.000
    N4130    N        0.53967    0.82754    0.89319    1.000
    N4131    N        0.70992    0.78958    0.92838    1.000
    N4132    N        0.67306    0.78858    0.97904    1.000
    Si4133   Si       0.65846    0.80326    0.93902    1.000
    N4134    N        0.73176    0.82994    0.97815    1.000
    Si4135   Si       0.71721    0.78739    0.97368    1.000
    Si4136   Si       0.71081    0.82006    0.89828    1.000
    N4137    N        0.56042    0.86855    0.08829    1.000
    Si4138   Si       0.53199    0.85103    0.05777    1.000
    Si4139   Si       0.60392    0.86574    0.07090    1.000
    N4140    N        0.51230    0.89121    0.05371    1.000
    Si4141   Si       0.66670    0.87710    0.10823    1.000
    N4142    N        0.68159    0.84561    0.02482    1.000
    N4143    N        0.62306    0.88431    0.03667    1.000
    Si4144   Si       0.66061    0.88169    0.01446    1.000
    N4145    N        0.62537    0.88244    0.10447    1.000
    Si4146   Si       0.73601    0.87571    0.08618    1.000
    Si4147   Si       0.72241    0.83015    0.02252    1.000
    N4148    N        0.57556    0.87910    0.15490    1.000
    Si4149   Si       0.54093    0.86409    0.13217    1.000
    N4150    N        0.50421    0.85621    0.19764    1.000
    Si4151   Si       0.59965    0.85648    0.18249    1.000
    N4152    N        0.57643    0.84718    0.21855    1.000
    Si4153   Si       0.49186    0.85604    0.23815    1.000
    N4154    N        0.63616    0.87877    0.18878    1.000
    Si4155   Si       0.66569    0.86455    0.21798    1.000
    N4156    N        0.72970    0.85295    0.12433    1.000
    Si4157   Si       0.71663    0.87532    0.15992    1.000
    N4158    N        0.70302    0.85725    0.19593    1.000
    N4159    N        0.52754    0.86837    0.26466    1.000
    Si4160   Si       0.56843    0.86027    0.25871    1.000
    N4161    N        0.60184    0.88907    0.27377    1.000
    N4162    N        0.66036    0.86453    0.31066    1.000
    Si4163   Si       0.64241    0.87573    0.27384    1.000
    N4164    N        0.64034    0.84146    0.24645    1.000
    N4165    N        0.72585    0.89027    0.30751    1.000
    Si4166   Si       0.69012    0.88815    0.33146    1.000
    Si4167   Si       0.53248    0.86029    0.40112    1.000
    Si4168   Si       0.59250    0.86740    0.47851    1.000
    N4169    N        0.59535    0.86288    0.43583    1.000
    N4170    N        0.51888    0.85933    0.44260    1.000
    N4171    N        0.49275    0.85045    0.38411    1.000
    N4172    N        0.69255    0.88009    0.37334    1.000
    N4173    N        0.73880    0.88401    0.42236    1.000
    N4174    N        0.69200    0.82978    0.48253    1.000
    Si4175   Si       0.72203    0.85590    0.39379    1.000
    Si4176   Si       0.65352    0.86772    0.38772    1.000
    N4177    N        0.63429    0.88020    0.48778    1.000
    N4178    N        0.66072    0.85822    0.42876    1.000
    N4179    N        0.57525    0.85107    0.51670    1.000
    Si4180   Si       0.52476    0.83981    0.60620    1.000
    Si4181   Si       0.50036    0.84632    0.52837    1.000
    N4182    N        0.51384    0.88732    0.51131    1.000
    N4183    N        0.52801    0.83651    0.56370    1.000
    Si4184   Si       0.55523    0.88960    0.52031    1.000
    N4185    N        0.64805    0.84778    0.61004    1.000
    Si4186   Si       0.65564    0.87696    0.52593    1.000
    N4187    N        0.72906    0.85216    0.60715    1.000
    Si4188   Si       0.64839    0.88950    0.60360    1.000
    N4189    N        0.69736    0.89249    0.52598    1.000
    N4190    N        0.65284    0.83670    0.54152    1.000
    N4191    N        0.58361    0.87426    0.74018    1.000
    N4192    N        0.54365    0.86144    0.64026    1.000
    N4193    N        0.49675    0.84499    0.68918    1.000
    Si4194   Si       0.59709    0.84301    0.71245    1.000
    Si4195   Si       0.48750    0.86791    0.72509    1.000
    Si4196   Si       0.71048    0.83507    0.69370    1.000
    N4197    N        0.61744    0.85734    0.67680    1.000
    N4198    N        0.68898    0.85927    0.72325    1.000
    Si4199   Si       0.59846    0.86923    0.77997    1.000
    N4200    N        0.58659    0.83645    0.80707    1.000
    N4201    N        0.49284    0.83583    0.75321    1.000
    N4202    N        0.54634    0.89064    0.85893    1.000
    Si4203   Si       0.73689    0.83714    0.82966    1.000
    N4204    N        0.64232    0.86100    0.77975    1.000
    N4205    N        0.70229    0.86145    0.82128    1.000
    Si4206   Si       0.66046    0.85340    0.81869    1.000
    Si4207   Si       0.66194    0.83781    0.74823    1.000
    N4208    N        0.60441    0.84583    0.87730    1.000
    Si4209   Si       0.56636    0.86091    0.88512    1.000
    Si4210   Si       0.54622    0.87243    0.95962    1.000
    N4211    N        0.50278    0.87239    0.96256    1.000
    N4212    N        0.58136    0.87902    0.98492    1.000
    Si4213   Si       0.59487    0.83506    0.98142    1.000
    N4214    N        0.55812    0.88640    0.92018    1.000
    Si4215   Si       0.63275    0.85525    0.90950    1.000
    N4216    N        0.66583    0.88015    0.97097    1.000
    N4217    N        0.62159    0.83052    0.94544    1.000
    N4218    N        0.67075    0.83353    0.90490    1.000
    N4219    N        0.57106    0.92956    0.10578    1.000
    N4220    N        0.56997    0.92679    0.04121    1.000
    Si4221   Si       0.54487    0.91091    0.07623    1.000
    Si4222   Si       0.59682    0.91084    0.01113    1.000
    N4223    N        0.51327    0.94330    0.09731    1.000
    N4224    N        0.68617    0.91970    0.01450    1.000
    Si4225   Si       0.69102    0.93213    0.05766    1.000
    N4226    N        0.69629    0.89641    0.08111    1.000
    Si4227   Si       0.59868    0.90638    0.12807    1.000
    N4228    N        0.52306    0.93599    0.19169    1.000
    Si4229   Si       0.50328    0.89670    0.18317    1.000
    N4230    N        0.50886    0.89352    0.13984    1.000
    N4231    N        0.62259    0.93395    0.15239    1.000
    N4232    N        0.68211    0.89601    0.14438    1.000
    Si4233   Si       0.65581    0.91432    0.17426    1.000
    N4234    N        0.67653    0.94373    0.19879    1.000
    Si4235   Si       0.53216    0.91619    0.35580    1.000
    Si4236   Si       0.58536    0.92403    0.29323    1.000
    N4237    N        0.55021    0.91064    0.31439    1.000
    N4238    N        0.50134    0.93605    0.27105    1.000
    Si4239   Si       0.51278    0.89855    0.29324    1.000
    N4240    N        0.49610    0.89746    0.33629    1.000
    N4241    N        0.60507    0.94853    0.32377    1.000
    N4242    N        0.67165    0.92808    0.33069    1.000
    Si4243   Si       0.63449    0.93505    0.35273    1.000
    N4244    N        0.66961    0.89810    0.24721    1.000
    Si4245   Si       0.67264    0.94310    0.24301    1.000
    Si4246   Si       0.50628    0.89549    0.46649    1.000
    N4247    N        0.51414    0.93419    0.45017    1.000
    Si4248   Si       0.59308    0.89851    0.40975    1.000
    N4249    N        0.57288    0.90712    0.48549    1.000
    Si4250   Si       0.59892    0.94064    0.47819    1.000
    N4251    N        0.55440    0.89777    0.38832    1.000
    Si4252   Si       0.64723    0.89394    0.44943    1.000
    N4253    N        0.61586    0.92616    0.43989    1.000
    N4254    N        0.67572    0.92337    0.43365    1.000
    Si4255   Si       0.72010    0.92337    0.43114    1.000
    N4256    N        0.62472    0.89926    0.37753    1.000
    N4257    N        0.72946    0.92909    0.47553    1.000
    N4258    N        0.56976    0.91726    0.55174    1.000
    Si4259   Si       0.54038    0.93390    0.57771    1.000
    N4260    N        0.49847    0.91766    0.57418    1.000
    Si4261   Si       0.61082    0.93074    0.55013    1.000
    N4262    N        0.55189    0.92859    0.61911    1.000
    Si4263   Si       0.69109    0.91589    0.56262    1.000
    N4264    N        0.68754    0.90887    0.60586    1.000
    N4265    N        0.64414    0.90400    0.55936    1.000
    Si4266   Si       0.72805    0.89586    0.60879    1.000
    N4267    N        0.73832    0.92150    0.57223    1.000
    N4268    N        0.49321    0.90617    0.65177    1.000
    Si4269   Si       0.59417    0.94424    0.62082    1.000
    Si4270   Si       0.53743    0.90261    0.64997    1.000
    N4271    N        0.51457    0.90340    0.73325    1.000
    N4272    N        0.56745    0.90909    0.68209    1.000
    Si4273   Si       0.55820    0.90646    0.72478    1.000
    Si4274   Si       0.60927    0.89891    0.67119    1.000
    N4275    N        0.57238    0.94810    0.73562    1.000
    Si4276   Si       0.71398    0.89699    0.72240    1.000
    N4277    N        0.68215    0.92449    0.74072    1.000
    N4278    N        0.63147    0.92805    0.69377    1.000
    Si4279   Si       0.67275    0.93985    0.70006    1.000
    N4280    N        0.71181    0.92311    0.68659    1.000
    N4281    N        0.62171    0.91101    0.62979    1.000
    N4282    N        0.51940    0.92732    0.80356    1.000
    Si4283   Si       0.50092    0.93045    0.76499    1.000
    N4284    N        0.58669    0.90320    0.80615    1.000
    Si4285   Si       0.55445    0.92150    0.82825    1.000
    Si4286   Si       0.49851    0.94468    0.83677    1.000
    N4287    N        0.61274    0.94771    0.85292    1.000
    Si4288   Si       0.62252    0.92068    0.81977    1.000
    Si4289   Si       0.69430    0.90232    0.83722    1.000
    N4290    N        0.70261    0.93099    0.80465    1.000
    N4291    N        0.65123    0.89340    0.83594    1.000
    N4292    N        0.63279    0.94524    0.78476    1.000
    Si4293   Si       0.67456    0.94802    0.77603    1.000
    Si4294   Si       0.53584    0.91763    0.89528    1.000
    N4295    N        0.50021    0.94010    0.97440    1.000
    N4296    N        0.71503    0.90578    0.87424    1.000
    Si4297   Si       0.63486    0.93774    0.89064    1.000
    N4298    N        0.63957    0.89673    0.90966    1.000
    N4299    N        0.68767    0.93195    0.94316    1.000
    Si4300   Si       0.70728    0.93846    0.90252    1.000
    Si4301   Si       0.70104    0.90713    0.97432    1.000
    N4302    N        0.62871    0.93219    0.98951    1.000
    Si4303   Si       0.64676    0.91492    0.94978    1.000
    N4304    N        0.51667    0.97169    0.03565    1.000
    Si4305   Si       0.55930    0.96659    0.02592    1.000
    Si4306   Si       0.50403    0.97958    0.07513    1.000
    N4307    N        0.58013    0.00087    0.03856    1.000
    N4308    N        0.54012    0.00120    0.09473    1.000
    Si4309   Si       0.54766    0.96261    0.11834    1.000
    N4310    N        0.60794    0.98834    0.10657    1.000
    Si4311   Si       0.64520    0.99119    0.08121    1.000
    N4312    N        0.65524    0.95794    0.05593    1.000
    N4313    N        0.69816    0.98824    0.00904    1.000
    Si4314   Si       0.65900    0.96064    0.00992    1.000
    N4315    N        0.67733    0.00374    0.10596    1.000
    Si4316   Si       0.73808    0.97566    0.02455    1.000
    N4317    N        0.73123    0.95067    0.05846    1.000
    N4318    N        0.50966    0.99628    0.19214    1.000
    Si4319   Si       0.54681    0.97413    0.19499    1.000
    N4320    N        0.58301    0.99586    0.21274    1.000
    N4321    N        0.56480    0.97497    0.15440    1.000
    Si4322   Si       0.60775    0.97412    0.14645    1.000
    Si4323   Si       0.71728    0.99656    0.12069    1.000
    N4324    N        0.69646    0.00612    0.22439    1.000
    N4325    N        0.63474    0.00281    0.16800    1.000
    Si4326   Si       0.70201    0.97945    0.19075    1.000
    N4327    N        0.73431    0.95734    0.12532    1.000
    N4328    N        0.70442    0.00873    0.16043    1.000
    Si4329   Si       0.51755    0.99404    0.34810    1.000
    Si4330   Si       0.58461    0.98586    0.31821    1.000
    N4331    N        0.54086    0.98660    0.31232    1.000
    Si4332   Si       0.53184    0.96676    0.27599    1.000
    N4333    N        0.52549    0.00409    0.25390    1.000
    Si4334   Si       0.59960    0.98625    0.25154    1.000
    N4335    N        0.57137    0.95268    0.26406    1.000
    Si4336   Si       0.69423    0.96162    0.31758    1.000
    Si4337   Si       0.71979    0.99411    0.25931    1.000
    N4338    N        0.67103    0.99734    0.33204    1.000
    N4339    N        0.69859    0.95916    0.27398    1.000
    Si4340   Si       0.64382    0.00348    0.36541    1.000
    N4341    N        0.73651    0.95675    0.33080    1.000
    N4342    N        0.63587    0.96451    0.24842    1.000
    N4343    N        0.52151    0.95630    0.37199    1.000
    Si4344   Si       0.53146    0.97209    0.46884    1.000
    N4345    N        0.52014    0.99573    0.43432    1.000
    N4346    N        0.57476    0.97651    0.47366    1.000
    Si4347   Si       0.50572    0.95960    0.41209    1.000
    Si4348   Si       0.72791    0.97283    0.48477    1.000
    Si4349   Si       0.64585    0.95488    0.42548    1.000
    N4350    N        0.64452    0.96399    0.38435    1.000
    N4351    N        0.63379    0.99221    0.44244    1.000
    Si4352   Si       0.73555    0.99651    0.41293    1.000
    N4353    N        0.52989    0.97703    0.57598    1.000
    N4354    N        0.51401    0.97912    0.50753    1.000
    Si4355   Si       0.53675    0.99935    0.53986    1.000
    Si4356   Si       0.60704    0.00314    0.57164    1.000
    N4357    N        0.60604    0.96009    0.58288    1.000
    Si4358   Si       0.51139    0.98811    0.61335    1.000
    Si4359   Si       0.66227    0.97473    0.52101    1.000
    Si4360   Si       0.73448    0.96362    0.55851    1.000
    N4361    N        0.69145    0.95807    0.55086    1.000
    N4362    N        0.64359    0.00535    0.54590    1.000
    N4363    N        0.62550    0.94879    0.51212    1.000
    N4364    N        0.69006    0.99514    0.49349    1.000
    Si4365   Si       0.53415    0.97211    0.72377    1.000
    N4366    N        0.50855    0.96940    0.68895    1.000
    N4367    N        0.59379    0.97170    0.65702    1.000
    Si4368   Si       0.59988    0.95877    0.69946    1.000
    N4369    N        0.61566    0.99243    0.72810    1.000
    Si4370   Si       0.70742    0.00476    0.67946    1.000
    N4371    N        0.67631    0.98299    0.69919    1.000
    N4372    N        0.73691    0.98166    0.65709    1.000
    Si4373   Si       0.65767    0.00580    0.72966    1.000
    N4374    N        0.59396    0.99824    0.79614    1.000
    N4375    N        0.50654    0.97553    0.75888    1.000
    Si4376   Si       0.60164    0.96958    0.76334    1.000
    Si4377   Si       0.60485    0.98791    0.83737    1.000
    Si4378   Si       0.49376    0.00292    0.78852    1.000
    N4379    N        0.58009    0.00454    0.87062    1.000
    N4380    N        0.53606    0.95027    0.85916    1.000
    N4381    N        0.67380    0.99205    0.76960    1.000
    N4382    N        0.64975    0.00329    0.83609    1.000
    Si4383   Si       0.60844    0.96909    0.96756    1.000
    Si4384   Si       0.54727    0.98221    0.88756    1.000
    Si4385   Si       0.53263    0.96534    0.96009    1.000
    N4386    N        0.56837    0.95581    0.98494    1.000
    N4387    N        0.54481    0.95445    0.92147    1.000
    N4388    N        0.52258    0.00507    0.96831    1.000
    N4389    N        0.58530    0.00717    0.94380    1.000
    Si4390   Si       0.66955    0.99922    0.87404    1.000
    N4391    N        0.62256    0.95315    0.92980    1.000
    N4392    N        0.63213    0.99257    0.99715    1.000
    N4393    N        0.67290    0.95675    0.88204    1.000
    N4394    N        0.81564    0.03245    0.08258    1.000
    Si4395   Si       0.85180    0.02736    0.10572    1.000
    Si4396   Si       0.76341    0.03979    0.01504    1.000
    N4397    N        0.75174    0.02173    0.10692    1.000
    N4398    N        0.80095    0.06084    0.02331    1.000
    Si4399   Si       0.75871    0.06302    0.11717    1.000
    Si4400   Si       0.89356    0.01804    0.03695    1.000
    N4401    N        0.87246    0.04973    0.01702    1.000
    N4402    N        0.93437    0.03393    0.03305    1.000
    Si4403   Si       0.96721    0.05666    0.01235    1.000
    N4404    N        0.88284    0.01758    0.07873    1.000
    Si4405   Si       0.96739    0.01102    0.05478    1.000
    Si4406   Si       0.78597    0.05679    0.18552    1.000
    N4407    N        0.78459    0.01566    0.19199    1.000
    N4408    N        0.86195    0.05936    0.13270    1.000
    Si4409   Si       0.86516    0.01627    0.23438    1.000
    N4410    N        0.97967    0.04540    0.22411    1.000
    Si4411   Si       0.88082    0.05561    0.17334    1.000
    N4412    N        0.97927    0.01696    0.15892    1.000
    N4413    N        0.92549    0.06238    0.17713    1.000
    N4414    N        0.86974    0.01794    0.19189    1.000
    Si4415   Si       0.95404    0.03197    0.19269    1.000
    Si4416   Si       0.75463    0.04201    0.29583    1.000
    Si4417   Si       0.78456    0.01989    0.35788    1.000
    N4418    N        0.82748    0.02721    0.25855    1.000
    N4419    N        0.78343    0.01770    0.31396    1.000
    N4420    N        0.80799    0.05421    0.36774    1.000
    N4421    N        0.76814    0.06115    0.26020    1.000
    Si4422   Si       0.81089    0.06831    0.25648    1.000
    Si4423   Si       0.90124    0.04132    0.29134    1.000
    N4424    N        0.94504    0.03548    0.28535    1.000
    N4425    N        0.88998    0.05055    0.25166    1.000
    Si4426   Si       0.96327    0.01423    0.25245    1.000
    N4427    N        0.98192    0.04731    0.34298    1.000
    Si4428   Si       0.97280    0.06386    0.30344    1.000
    Si4429   Si       0.82734    0.04283    0.46883    1.000
    N4430    N        0.79457    0.05017    0.43933    1.000
    Si4431   Si       0.76368    0.03645    0.46623    1.000
    N4432    N        0.74782    0.02597    0.38022    1.000
    N4433    N        0.85715    0.06352    0.42920    1.000
    Si4434   Si       0.94248    0.02953    0.40216    1.000
    Si4435   Si       0.87294    0.02157    0.42233    1.000
    N4436    N        0.96187    0.06685    0.40866    1.000
    N4437    N        0.91008    0.03938    0.37350    1.000
    Si4438   Si       0.81806    0.04725    0.53399    1.000
    N4439    N        0.85623    0.05199    0.56426    1.000
    N4440    N        0.84821    0.05827    0.50292    1.000
    N4441    N        0.79085    0.02996    0.49798    1.000
    N4442    N        0.91487    0.01749    0.59243    1.000
    Si4443   Si       0.92334    0.01848    0.55099    1.000
    N4444    N        0.91685    0.05532    0.52992    1.000
    N4445    N        0.74743    0.04704    0.62650    1.000
    Si4446   Si       0.83070    0.01799    0.64915    1.000
    N4447    N        0.80586    0.04426    0.67285    1.000
    N4448    N        0.82735    0.02904    0.73679    1.000
    Si4449   Si       0.80984    0.06073    0.71116    1.000
    Si4450   Si       0.86570    0.05202    0.73585    1.000
    Si4451   Si       0.90902    0.03311    0.63311    1.000
    Si4452   Si       0.98182    0.05310    0.71630    1.000
    N4453    N        0.93366    0.06467    0.65046    1.000
    N4454    N        0.95857    0.02546    0.69340    1.000
    Si4455   Si       0.97871    0.05833    0.64883    1.000
    N4456    N        0.86513    0.04004    0.63413    1.000
    Si4457   Si       0.92396    0.06424    0.69645    1.000
    N4458    N        0.89121    0.03639    0.70536    1.000
    N4459    N        0.98324    0.02070    0.62611    1.000
    Si4460   Si       0.80614    0.03557    0.77619    1.000
    N4461    N        0.76198    0.04004    0.77994    1.000
    N4462    N        0.84469    0.05991    0.83708    1.000
    Si4463   Si       0.86348    0.02890    0.86013    1.000
    Si4464   Si       0.74718    0.00910    0.80914    1.000
    N4465    N        0.96394    0.02003    0.85976    1.000
    Si4466   Si       0.92706    0.04718    0.76948    1.000
    N4467    N        0.95599    0.05535    0.80180    1.000
    Si4468   Si       0.96776    0.06107    0.84452    1.000
    N4469    N        0.88520    0.05839    0.77488    1.000
    N4470    N        0.82737    0.05371    0.95459    1.000
    Si4471   Si       0.81019    0.03874    0.91713    1.000
    N4472    N        0.76741    0.02976    0.91322    1.000
    N4473    N        0.76754    0.02417    0.97575    1.000
    N4474    N        0.84374    0.01478    0.89635    1.000
    Si4475   Si       0.74399    0.04608    0.94600    1.000
    Si4476   Si       0.83391    0.04529    0.99723    1.000
    N4477    N        0.94821    0.03471    0.93042    1.000
    Si4478   Si       0.93336    0.02257    0.89143    1.000
    N4479    N        0.89937    0.04635    0.87779    1.000
    Si4480   Si       0.97210    0.00567    0.95246    1.000
    N4481    N        0.83801    0.09759    0.08485    1.000
    N4482    N        0.77230    0.08748    0.08378    1.000
    Si4483   Si       0.80881    0.07091    0.06530    1.000
    N4484    N        0.96812    0.09760    0.03925    1.000
    N4485    N        0.90420    0.09906    0.05732    1.000
    Si4486   Si       0.90881    0.07498    0.02174    1.000
    Si4487   Si       0.87020    0.12186    0.07005    1.000
    Si4488   Si       0.94180    0.12236    0.06057    1.000
    Si4489   Si       0.98203    0.12406    0.12056    1.000
    Si4490   Si       0.83034    0.08827    0.12858    1.000
    N4491    N        0.80782    0.08050    0.21452    1.000
    Si4492   Si       0.83131    0.11212    0.19566    1.000
    N4493    N        0.74507    0.07278    0.19080    1.000
    N4494    N        0.83466    0.12441    0.15272    1.000
    N4495    N        0.79363    0.07036    0.14410    1.000
    Si4496   Si       0.74318    0.08621    0.23264    1.000
    Si4497   Si       0.93145    0.10488    0.17903    1.000
    N4498    N        0.96907    0.11751    0.16086    1.000
    N4499    N        0.93062    0.11544    0.22374    1.000
    N4500    N        0.86899    0.08708    0.19979    1.000
    Si4501   Si       0.89437    0.08971    0.23596    1.000
    N4502    N        0.82229    0.08356    0.29624    1.000
    Si4503   Si       0.80019    0.08087    0.33438    1.000
    N4504    N        0.75907    0.07626    0.32347    1.000
    N4505    N        0.79971    0.12062    0.35151    1.000
    Si4506   Si       0.86059    0.10574    0.30313    1.000
    Si4507   Si       0.89868    0.08045    0.35729    1.000
    N4508    N        0.96023    0.10385    0.28975    1.000
    N4509    N        0.93809    0.09977    0.35521    1.000
    N4510    N        0.88746    0.07505    0.31605    1.000
    N4511    N        0.87445    0.11768    0.26307    1.000
    Si4512   Si       0.96611    0.12039    0.24877    1.000
    Si4513   Si       0.95970    0.12495    0.32801    1.000
    N4514    N        0.81431    0.11029    0.41654    1.000
    N4515    N        0.80484    0.11451    0.48813    1.000
    Si4516   Si       0.81807    0.06865    0.40806    1.000
    Si4517   Si       0.98058    0.08172    0.37113    1.000
    Si4518   Si       0.86896    0.10520    0.42507    1.000
    Si4519   Si       0.95204    0.09548    0.43856    1.000
    N4520    N        0.95659    0.07503    0.47626    1.000
    N4521    N        0.86750    0.10174    0.38093    1.000
    N4522    N        0.91287    0.10890    0.42929    1.000
    N4523    N        0.79949    0.08385    0.54980    1.000
    Si4524   Si       0.80032    0.10914    0.58524    1.000
    Si4525   Si       0.78005    0.11510    0.52558    1.000
    N4526    N        0.81290    0.07966    0.61463    1.000
    N4527    N        0.76112    0.12154    0.59979    1.000
    Si4528   Si       0.85422    0.06926    0.60410    1.000
    Si4529   Si       0.94983    0.08143    0.51670    1.000
    N4530    N        0.87397    0.11679    0.52250    1.000
    N4531    N        0.88194    0.10192    0.61269    1.000
    Si4532   Si       0.87735    0.07369    0.53080    1.000
    N4533    N        0.98303    0.08452    0.54388    1.000
    N4534    N        0.76647    0.10136    0.66559    1.000
    N4535    N        0.77320    0.07719    0.72714    1.000
    Si4536   Si       0.76443    0.11480    0.70661    1.000
    N4537    N        0.84627    0.08412    0.71447    1.000
    Si4538   Si       0.78214    0.06537    0.64293    1.000
    Si4539   Si       0.86873    0.12146    0.70926    1.000
    Si4540   Si       0.91256    0.10144    0.64307    1.000
    N4541    N        0.94413    0.06966    0.73614    1.000
    N4542    N        0.90774    0.10979    0.68649    1.000
    Si4543   Si       0.78907    0.10291    0.76244    1.000
    N4544    N        0.75252    0.10796    0.78329    1.000
    Si4545   Si       0.85677    0.08200    0.80255    1.000
    N4546    N        0.81874    0.07732    0.78065    1.000
    N4547    N        0.80325    0.11826    0.84510    1.000
    Si4548   Si       0.83184    0.09291    0.86201    1.000
    Si4549   Si       0.76003    0.12241    0.84745    1.000
    N4550    N        0.86295    0.12556    0.80727    1.000
    Si4551   Si       0.96022    0.10616    0.75770    1.000
    N4552    N        0.94874    0.08910    0.87073    1.000
    N4553    N        0.93095    0.11920    0.78565    1.000
    N4554    N        0.75196    0.08889    0.94686    1.000
    Si4555   Si       0.78181    0.10277    0.91460    1.000
    N4556    N        0.80875    0.07508    0.89363    1.000
    Si4557   Si       0.94371    0.07642    0.94629    1.000
    N4558    N        0.86743    0.10907    0.87992    1.000
    Si4559   Si       0.96947    0.11898    0.89316    1.000
    Si4560   Si       0.90494    0.08883    0.88450    1.000
    N4561    N        0.97464    0.10754    0.93615    1.000
    N4562    N        0.91112    0.09746    0.92771    1.000
    N4563    N        0.93369    0.07620    0.98763    1.000
    Si4564   Si       0.75739    0.16810    0.01626    1.000
    Si4565   Si       0.82884    0.16730    0.02035    1.000
    N4566    N        0.79500    0.15492    0.10865    1.000
    N4567    N        0.79290    0.15537    0.04466    1.000
    Si4568   Si       0.77253    0.13127    0.07897    1.000
    N4569    N        0.86360    0.14634    0.03294    1.000
    N4570    N        0.88236    0.14695    0.10437    1.000
    N4571    N        0.94067    0.15848    0.03362    1.000
    Si4572   Si       0.89940    0.17198    0.02659    1.000
    Si4573   Si       0.91869    0.17370    0.10353    1.000
    N4574    N        0.94619    0.13916    0.09965    1.000
    Si4575   Si       0.98129    0.17795    0.02620    1.000
    N4576    N        0.82334    0.14148    0.22576    1.000
    N4577    N        0.78073    0.15315    0.17931    1.000
    Si4578   Si       0.78003    0.15284    0.22303    1.000
    Si4579   Si       0.80974    0.15940    0.15037    1.000
    N4580    N        0.84310    0.18720    0.16007    1.000
    N4581    N        0.74998    0.12880    0.24404    1.000
    Si4582   Si       0.75312    0.18520    0.17180    1.000
    N4583    N        0.88342    0.17791    0.23076    1.000
    Si4584   Si       0.87078    0.15597    0.14564    1.000
    N4585    N        0.90304    0.13729    0.16891    1.000
    Si4586   Si       0.91383    0.15374    0.20926    1.000
    N4587    N        0.94173    0.18427    0.19827    1.000
    Si4588   Si       0.76467    0.14838    0.35004    1.000
    N4589    N        0.75822    0.15890    0.30935    1.000
    N4590    N        0.85385    0.14059    0.32656    1.000
    Si4591   Si       0.85553    0.15382    0.25114    1.000
    Si4592   Si       0.83893    0.13123    0.36655    1.000
    N4593    N        0.83622    0.18335    0.27617    1.000
    Si4594   Si       0.84665    0.18426    0.31963    1.000
    N4595    N        0.95027    0.16634    0.31997    1.000
    N4596    N        0.97499    0.16346    0.25482    1.000
    N4597    N        0.76912    0.17525    0.38338    1.000
    Si4598   Si       0.84199    0.17114    0.43446    1.000
    N4599    N        0.83957    0.16794    0.39187    1.000
    N4600    N        0.86034    0.13755    0.45542    1.000
    N4601    N        0.79849    0.17217    0.44934    1.000
    Si4602   Si       0.74113    0.16347    0.41636    1.000
    Si4603   Si       0.79156    0.12823    0.44780    1.000
    N4604    N        0.74916    0.12701    0.43791    1.000
    N4605    N        0.96607    0.13538    0.43674    1.000
    N4606    N        0.91784    0.16636    0.38245    1.000
    Si4607   Si       0.92862    0.14910    0.42010    1.000
    N4608    N        0.83924    0.17017    0.51600    1.000
    N4609    N        0.78391    0.15303    0.54686    1.000
    Si4610   Si       0.76118    0.16116    0.58352    1.000
    Si4611   Si       0.82286    0.17156    0.55762    1.000
    N4612    N        0.83054    0.14116    0.58897    1.000
    Si4613   Si       0.73727    0.16680    0.52222    1.000
    Si4614   Si       0.84238    0.13113    0.49706    1.000
    Si4615   Si       0.87192    0.14231    0.59952    1.000
    Si4616   Si       0.90291    0.14820    0.53081    1.000
    N4617    N        0.89543    0.16526    0.57042    1.000
    Si4618   Si       0.98337    0.12957    0.61371    1.000
    N4619    N        0.90419    0.18504    0.50685    1.000
    Si4620   Si       0.98281    0.12923    0.53532    1.000
    N4621    N        0.99343    0.14578    0.57363    1.000
    N4622    N        0.93971    0.12584    0.52488    1.000
    Si4623   Si       0.81197    0.16948    0.71349    1.000
    N4624    N        0.84888    0.15894    0.69503    1.000
    N4625    N        0.79420    0.13437    0.73301    1.000
    N4626    N        0.96404    0.13687    0.72771    1.000
    Si4627   Si       0.92429    0.14214    0.71202    1.000
    N4628    N        0.92777    0.17500    0.68227    1.000
    Si4629   Si       0.92668    0.16871    0.63853    1.000
    N4630    N        0.89087    0.14152    0.73993    1.000
    N4631    N        0.94262    0.13049    0.62957    1.000
    N4632    N        0.88294    0.16611    0.63489    1.000
    N4633    N        0.75499    0.16246    0.83502    1.000
    Si4634   Si       0.85325    0.16612    0.82533    1.000
    N4635    N        0.84735    0.17184    0.87245    1.000
    Si4636   Si       0.89606    0.14412    0.78306    1.000
    N4637    N        0.97734    0.17388    0.84543    1.000
    N4638    N        0.88776    0.18143    0.80401    1.000
    Si4639   Si       0.79531    0.16132    0.95146    1.000
    Si4640   Si       0.85046    0.14189    0.90334    1.000
    N4641    N        0.76812    0.14225    0.98181    1.000
    N4642    N        0.81057    0.13628    0.92153    1.000
    N4643    N        0.82693    0.17829    0.97844    1.000
    N4644    N        0.75250    0.12563    0.89110    1.000
    N4645    N        0.87693    0.15842    0.93269    1.000
    N4646    N        0.94471    0.16521    0.95682    1.000
    Si4647   Si       0.91750    0.14205    0.93128    1.000
    Si4648   Si       0.98309    0.14348    0.96146    1.000
    N4649    N        0.93863    0.15099    0.89432    1.000
    N4650    N        0.83645    0.20965    0.09986    1.000
    N4651    N        0.76979    0.21221    0.08037    1.000
    N4652    N        0.82942    0.20479    0.03979    1.000
    N4653    N        0.77066    0.20852    0.00809    1.000
    Si4654   Si       0.76889    0.23480    0.04281    1.000
    Si4655   Si       0.86098    0.22306    0.06253    1.000
    Si4656   Si       0.80585    0.18892    0.07837    1.000
    N4657    N        0.89732    0.19729    0.06208    1.000
    N4658    N        0.95074    0.20399    0.09765    1.000
    Si4659   Si       0.92112    0.23064    0.07608    1.000
    N4660    N        0.97177    0.21093    0.99828    1.000
    N4661    N        0.78292    0.21556    0.16288    1.000
    Si4662   Si       0.82318    0.22285    0.18002    1.000
    N4663    N        0.83486    0.22593    0.22155    1.000
    Si4664   Si       0.74561    0.22532    0.22880    1.000
    N4665    N        0.77554    0.19574    0.23845    1.000
    N4666    N        0.98790    0.23121    0.22522    1.000
    N4667    N        0.90583    0.24242    0.20302    1.000
    Si4668   Si       0.86429    0.22246    0.13059    1.000
    Si4669   Si       0.87721    0.22164    0.23235    1.000
    Si4670   Si       0.92444    0.21410    0.17420    1.000
    N4671    N        0.90017    0.19733    0.13914    1.000
    Si4672   Si       0.97918    0.18804    0.21625    1.000
    N4673    N        0.95487    0.24076    0.15945    1.000
    N4674    N        0.81498    0.20557    0.34167    1.000
    Si4675   Si       0.81305    0.21303    0.25495    1.000
    N4676    N        0.74864    0.23083    0.31552    1.000
    Si4677   Si       0.79190    0.23721    0.32254    1.000
    N4678    N        0.94437    0.22151    0.27922    1.000
    N4679    N        0.88751    0.20198    0.31993    1.000
    N4680    N        0.93480    0.22339    0.36068    1.000
    Si4681   Si       0.90661    0.23448    0.29708    1.000
    Si4682   Si       0.97046    0.18765    0.28986    1.000
    Si4683   Si       0.92076    0.18569    0.34331    1.000
    Si4684   Si       0.80658    0.19784    0.38172    1.000
    N4685    N        0.81359    0.23348    0.40533    1.000
    N4686    N        0.85252    0.20674    0.45639    1.000
    Si4687   Si       0.77334    0.20570    0.46545    1.000
    N4688    N        0.97701    0.19318    0.48108    1.000
    N4689    N        0.92758    0.19108    0.43821    1.000
    N4690    N        0.88364    0.23710    0.40456    1.000
    Si4691   Si       0.93381    0.20180    0.47992    1.000
    N4692    N        0.92095    0.24274    0.48246    1.000
    Si4693   Si       0.91954    0.21137    0.40075    1.000
    N4694    N        0.82604    0.21121    0.57385    1.000
    Si4695   Si       0.80708    0.21732    0.61064    1.000
    N4696    N        0.76049    0.20256    0.50683    1.000
    N4697    N        0.85608    0.23735    0.51722    1.000
    N4698    N        0.77464    0.18819    0.61507    1.000
    Si4699   Si       0.86339    0.20073    0.49702    1.000
    N4700    N        0.96049    0.20573    0.55293    1.000
    Si4701   Si       0.92031    0.20354    0.57066    1.000
    N4702    N        0.93411    0.20125    0.61150    1.000
    N4703    N        0.78568    0.18790    0.68506    1.000
    N4704    N        0.83853    0.21804    0.64169    1.000
    Si4705   Si       0.78189    0.22713    0.70918    1.000
    N4706    N        0.81011    0.20671    0.73933    1.000
    Si4707   Si       0.75700    0.18778    0.65332    1.000
    Si4708   Si       0.86218    0.18785    0.66609    1.000
    N4709    N        0.74192    0.22375    0.72339    1.000
    N4710    N        0.95685    0.23665    0.66652    1.000
    N4711    N        0.98775    0.21293    0.72196    1.000
    N4712    N        0.92602    0.23525    0.73039    1.000
    Si4713   Si       0.92913    0.21627    0.69146    1.000
    N4714    N        0.88214    0.22400    0.68732    1.000
    Si4715   Si       0.82432    0.22159    0.77670    1.000
    N4716    N        0.75563    0.22289    0.81596    1.000
    Si4717   Si       0.78498    0.19550    0.83674    1.000
    N4718    N        0.82091    0.19174    0.81029    1.000
    N4719    N        0.86490    0.23879    0.76769    1.000
    Si4720   Si       0.91350    0.21417    0.81051    1.000
    N4721    N        0.95042    0.20857    0.78878    1.000
    N4722    N        0.91608    0.21246    0.85506    1.000
    Si4723   Si       0.96279    0.23088    0.75328    1.000
    Si4724   Si       0.98420    0.18703    0.80586    1.000
    N4725    N        0.79307    0.21346    0.87361    1.000
    N4726    N        0.77947    0.20113    0.93984    1.000
    Si4727   Si       0.76140    0.21515    0.90284    1.000
    N4728    N        0.84983    0.21835    0.92651    1.000
    Si4729   Si       0.83477    0.21227    0.88415    1.000
    Si4730   Si       0.79768    0.21590    0.97623    1.000
    Si4731   Si       0.86382    0.19223    0.95835    1.000
    Si4732   Si       0.94873    0.18975    0.87348    1.000
    N4733    N        0.89566    0.19594    0.98907    1.000
    Si4734   Si       0.93698    0.20556    0.97167    1.000
    N4735    N        0.97396    0.21117    0.90259    1.000
    N4736    N        0.93021    0.24387    0.95082    1.000
    N4737    N        0.79572    0.27006    0.04001    1.000
    N4738    N        0.83257    0.28883    0.09845    1.000
    Si4739   Si       0.83361    0.27204    0.01294    1.000
    Si4740   Si       0.80008    0.29735    0.07240    1.000
    N4741    N        0.75837    0.30219    0.08446    1.000
    N4742    N        0.86828    0.25648    0.03571    1.000
    Si4743   Si       0.87563    0.28878    0.09854    1.000
    Si4744   Si       0.96132    0.28412    0.01883    1.000
    N4745    N        0.93828    0.25802    0.04751    1.000
    Si4746   Si       0.90129    0.28195    0.03599    1.000
    N4747    N        0.97300    0.29336    0.11722    1.000
    N4748    N        0.88682    0.24670    0.09939    1.000
    N4749    N        0.92007    0.29244    0.99855    1.000
    N4750    N        0.99185    0.30366    0.04378    1.000
    Si4751   Si       0.82549    0.28590    0.14152    1.000
    Si4752   Si       0.76141    0.25216    0.16387    1.000
    N4753    N        0.76527    0.25974    0.20784    1.000
    N4754    N        0.78250    0.28444    0.14390    1.000
    Si4755   Si       0.78829    0.29043    0.22896    1.000
    N4756    N        0.84402    0.25201    0.15685    1.000
    N4757    N        0.89493    0.30502    0.13386    1.000
    N4758    N        0.93990    0.28572    0.24666    1.000
    Si4759   Si       0.92153    0.28564    0.20652    1.000
    Si4760   Si       0.98977    0.26036    0.14237    1.000
    N4761    N        0.79454    0.27134    0.34930    1.000
    Si4762   Si       0.84289    0.27065    0.27739    1.000
    N4763    N        0.84906    0.29117    0.31584    1.000
    N4764    N        0.80653    0.24390    0.28259    1.000
    N4765    N        0.83026    0.29464    0.24362    1.000
    N4766    N        0.98970    0.26859    0.28854    1.000
    N4767    N        0.91695    0.27444    0.31536    1.000
    Si4768   Si       0.95778    0.28848    0.31113    1.000
    N4769    N        0.96887    0.28973    0.35418    1.000
    Si4770   Si       0.96637    0.25259    0.25656    1.000
    N4771    N        0.87798    0.24423    0.26832    1.000
    N4772    N        0.78389    0.24851    0.47090    1.000
    Si4773   Si       0.78397    0.26245    0.39281    1.000
    N4774    N        0.84695    0.27891    0.45191    1.000
    N4775    N        0.78882    0.29668    0.41755    1.000
    Si4776   Si       0.80328    0.28669    0.45688    1.000
    N4777    N        0.74205    0.24956    0.38506    1.000
    Si4778   Si       0.84944    0.24155    0.42912    1.000
    Si4779   Si       0.93497    0.26657    0.37102    1.000
    Si4780   Si       0.93836    0.26892    0.45347    1.000
    N4781    N        0.90409    0.29820    0.37339    1.000
    N4782    N        0.98050    0.27506    0.46265    1.000
    N4783    N        0.94781    0.25611    0.41291    1.000
    Si4784   Si       0.78006    0.28255    0.58146    1.000
    N4785    N        0.85224    0.27820    0.57700    1.000
    N4786    N        0.79165    0.26091    0.54403    1.000
    N4787    N        0.78754    0.25612    0.61493    1.000
    Si4788   Si       0.83245    0.24702    0.55134    1.000
    Si4789   Si       0.76642    0.24734    0.51074    1.000
    Si4790   Si       0.95800    0.25301    0.55105    1.000
    Si4791   Si       0.89572    0.25432    0.51587    1.000
    Si4792   Si       0.89325    0.27154    0.58560    1.000
    N4793    N        0.96081    0.26067    0.59462    1.000
    N4794    N        0.88922    0.29634    0.51145    1.000
    N4795    N        0.95384    0.29234    0.52920    1.000
    N4796    N        0.90985    0.24339    0.55693    1.000
    N4797    N        0.78925    0.26476    0.68743    1.000
    N4798    N        0.85214    0.28564    0.67038    1.000
    Si4799   Si       0.76438    0.26356    0.65064    1.000
    Si4800   Si       0.81361    0.30009    0.69001    1.000
    Si4801   Si       0.98423    0.29801    0.73382    1.000
    Si4802   Si       0.86523    0.24915    0.65334    1.000
    Si4803   Si       0.88405    0.24314    0.72690    1.000
    N4804    N        0.89799    0.25984    0.62691    1.000
    N4805    N        0.88692    0.28690    0.73527    1.000
    Si4806   Si       0.93845    0.24286    0.62671    1.000
    N4807    N        0.77582    0.28175    0.84621    1.000
    N4808    N        0.80179    0.25927    0.78424    1.000
    Si4809   Si       0.76505    0.26418    0.80699    1.000
    Si4810   Si       0.81948    0.29785    0.77346    1.000
    N4811    N        0.85026    0.24833    0.86498    1.000
    N4812    N        0.85475    0.30274    0.79519    1.000
    Si4813   Si       0.81526    0.27693    0.86891    1.000
    Si4814   Si       0.88848    0.27954    0.77904    1.000
    N4815    N        0.97158    0.28399    0.83511    1.000
    N4816    N        0.90494    0.25761    0.81420    1.000
    Si4817   Si       0.89565    0.25396    0.85603    1.000
    N4818    N        0.98002    0.26853    0.76601    1.000
    Si4819   Si       0.92995    0.29303    0.82736    1.000
    N4820    N        0.89622    0.30549    0.85244    1.000
    N4821    N        0.74615    0.25546    0.91346    1.000
    Si4822   Si       0.74456    0.28044    0.87900    1.000
    Si4823   Si       0.84087    0.25831    0.93764    1.000
    N4824    N        0.81108    0.27720    0.91297    1.000
    N4825    N        0.81917    0.25294    0.97677    1.000
    N4826    N        0.74252    0.29563    0.96621    1.000
    Si4827   Si       0.77639    0.30153    0.93614    1.000
    Si4828   Si       0.95424    0.24929    0.91132    1.000
    Si4829   Si       0.90995    0.28259    0.95693    1.000
    N4830    N        0.98287    0.27780    0.98130    1.000
    N4831    N        0.98528    0.28049    0.90706    1.000
    N4832    N        0.86778    0.29023    0.94573    1.000
    N4833    N        0.92110    0.26764    0.89064    1.000
    N4834    N        0.81215    0.33516    0.05842    1.000
    Si4835   Si       0.84144    0.34887    0.02747    1.000
    N4836    N        0.84594    0.31262    0.00379    1.000
    N4837    N        0.77575    0.35824    0.11640    1.000
    Si4838   Si       0.90323    0.35520    0.06225    1.000
    N4839    N        0.89369    0.31269    0.06637    1.000
    N4840    N        0.93833    0.35517    0.12600    1.000
    Si4841   Si       0.76023    0.31783    0.12487    1.000
    N4842    N        0.77969    0.32955    0.20746    1.000
    Si4843   Si       0.80984    0.35150    0.18678    1.000
    N4844    N        0.83304    0.32292    0.16254    1.000
    Si4845   Si       0.74898    0.34035    0.23786    1.000
    Si4846   Si       0.85947    0.32410    0.23429    1.000
    N4847    N        0.95041    0.35426    0.23623    1.000
    Si4848   Si       0.96607    0.34988    0.19552    1.000
    N4849    N        0.88545    0.30854    0.20469    1.000
    Si4850   Si       0.87607    0.32490    0.16571    1.000
    Si4851   Si       0.93840    0.31259    0.13649    1.000
    N4852    N        0.94612    0.31378    0.18030    1.000
    N4853    N        0.78106    0.33349    0.32022    1.000
    Si4854   Si       0.74520    0.31677    0.29874    1.000
    Si4855   Si       0.81338    0.30667    0.33705    1.000
    N4856    N        0.76016    0.30285    0.26063    1.000
    N4857    N        0.82416    0.33494    0.36825    1.000
    Si4858   Si       0.93029    0.32500    0.26272    1.000
    N4859    N        0.95644    0.33004    0.29922    1.000
    N4860    N        0.88774    0.33393    0.26649    1.000
    N4861    N        0.88335    0.34659    0.33362    1.000
    Si4862   Si       0.88655    0.30121    0.33334    1.000
    Si4863   Si       0.86062    0.35758    0.36919    1.000
    N4864    N        0.80073    0.31878    0.48508    1.000
    Si4865   Si       0.79509    0.33701    0.40044    1.000
    N4866    N        0.74403    0.35512    0.45534    1.000
    N4867    N        0.86134    0.34560    0.47825    1.000
    Si4868   Si       0.78654    0.35607    0.46760    1.000
    N4869    N        0.76264    0.35906    0.38195    1.000
    N4870    N        0.88009    0.35205    0.40931    1.000
    N4871    N        0.95263    0.33946    0.40317    1.000
    Si4872   Si       0.91225    0.32515    0.40742    1.000
    Si4873   Si       0.87728    0.30672    0.47098    1.000
    Si4874   Si       0.98334    0.32252    0.37702    1.000
    N4875    N        0.91278    0.30522    0.44640    1.000
    N4876    N        0.79971    0.32107    0.59035    1.000
    Si4877   Si       0.84231    0.32125    0.58522    1.000
    N4878    N        0.84934    0.34636    0.54737    1.000
    Si4879   Si       0.82870    0.34504    0.50921    1.000
    Si4880   Si       0.77805    0.35746    0.60207    1.000
    Si4881   Si       0.91897    0.31761    0.53700    1.000
    Si4882   Si       0.93817    0.32849    0.60942    1.000
    N4883    N        0.98201    0.32537    0.59959    1.000
    N4884    N        0.91311    0.30952    0.58063    1.000
    N4885    N        0.85725    0.33189    0.62517    1.000
    N4886    N        0.81053    0.34192    0.67673    1.000
    N4887    N        0.75403    0.32977    0.71265    1.000
    N4888    N        0.82546    0.30865    0.73176    1.000
    Si4889   Si       0.86633    0.32322    0.72560    1.000
    N4890    N        0.94906    0.32152    0.72366    1.000
    N4891    N        0.92550    0.32035    0.65009    1.000
    Si4892   Si       0.94770    0.33981    0.68433    1.000
    N4893    N        0.87786    0.34059    0.68909    1.000
    Si4894   Si       0.88222    0.31274    0.65574    1.000
    N4895    N        0.98696    0.34137    0.66574    1.000
    Si4896   Si       0.78816    0.32691    0.83338    1.000
    N4897    N        0.78579    0.31919    0.78942    1.000
    Si4898   Si       0.76239    0.33638    0.75562    1.000
    N4899    N        0.82573    0.31588    0.85479    1.000
    N4900    N        0.74729    0.34159    0.84042    1.000
    Si4901   Si       0.86122    0.32329    0.83189    1.000
    Si4902   Si       0.92730    0.34081    0.75837    1.000
    N4903    N        0.88630    0.35392    0.75078    1.000
    N4904    N        0.92396    0.31068    0.78829    1.000
    Si4905   Si       0.84450    0.32367    0.96156    1.000
    N4906    N        0.80121    0.33115    0.95476    1.000
    N4907    N        0.75447    0.31615    0.90306    1.000
    N4908    N        0.74749    0.35927    0.99522    1.000
    Si4909   Si       0.91279    0.31506    0.89368    1.000
    N4910    N        0.94994    0.33391    0.87227    1.000
    Si4911   Si       0.98537    0.30650    0.87117    1.000
    N4912    N        0.93017    0.31682    0.93455    1.000
    Si4913   Si       0.95092    0.35186    0.94659    1.000
    N4914    N        0.89292    0.35557    0.89729    1.000
    N4915    N        0.81476    0.40056    0.06909    1.000
    N4916    N        0.75103    0.38869    0.05938    1.000
    N4917    N        0.81455    0.37715    0.00775    1.000
    Si4918   Si       0.85554    0.40803    0.08187    1.000
    Si4919   Si       0.78627    0.36802    0.07550    1.000
    Si4920   Si       0.82563    0.41561    0.02874    1.000
    N4921    N        0.88537    0.37960    0.09321    1.000
    Si4922   Si       0.96381    0.37575    0.02028    1.000
    Si4923   Si       0.96496    0.36997    0.09486    1.000
    N4924    N        0.96147    0.41257    0.09476    1.000
    N4925    N        0.88140    0.36561    0.02607    1.000
    N4926    N        0.94608    0.35990    0.05676    1.000
    Si4927   Si       0.76268    0.38936    0.14414    1.000
    N4928    N        0.79172    0.38990    0.17719    1.000
    N4929    N        0.84123    0.36221    0.21866    1.000
    Si4930   Si       0.93250    0.42060    0.18174    1.000
    Si4931   Si       0.90398    0.38199    0.13035    1.000
    N4932    N        0.90640    0.40648    0.21380    1.000
    N4933    N        0.96371    0.39333    0.17850    1.000
    N4934    N        0.88321    0.36714    0.16588    1.000
    Si4935   Si       0.86869    0.39035    0.20063    1.000
    N4936    N        0.84501    0.38920    0.28291    1.000
    N4937    N        0.80047    0.40876    0.33277    1.000
    Si4938   Si       0.77495    0.37089    0.34274    1.000
    N4939    N        0.77442    0.37077    0.25787    1.000
    Si4940   Si       0.75755    0.41149    0.25290    1.000
    Si4941   Si       0.81710    0.38344    0.25197    1.000
    Si4942   Si       0.83941    0.42142    0.31318    1.000
    Si4943   Si       0.88218    0.36515    0.29473    1.000
    N4944    N        0.91416    0.39105    0.28570    1.000
    Si4945   Si       0.93295    0.39322    0.24667    1.000
    N4946    N        0.85074    0.39777    0.37927    1.000
    N4947    N        0.85343    0.41032    0.44640    1.000
    Si4948   Si       0.85391    0.36662    0.44096    1.000
    N4949    N        0.81132    0.36017    0.43185    1.000
    Si4950   Si       0.82860    0.41964    0.41091    1.000
    Si4951   Si       0.95604    0.41249    0.47404    1.000
    N4952    N        0.96594    0.41098    0.43022    1.000
    N4953    N        0.96692    0.37132    0.47730    1.000
    Si4954   Si       0.96849    0.36397    0.43372    1.000
    Si4955   Si       0.78164    0.40103    0.53384    1.000
    N4956    N        0.76853    0.37392    0.56406    1.000
    N4957    N        0.80008    0.37855    0.50138    1.000
    N4958    N        0.86199    0.41618    0.52373    1.000
    Si4959   Si       0.95170    0.37994    0.55825    1.000
    Si4960   Si       0.87672    0.37887    0.54501    1.000
    N4961    N        0.94394    0.37306    0.60448    1.000
    N4962    N        0.88357    0.39915    0.58313    1.000
    Si4963   Si       0.92233    0.41263    0.59919    1.000
    N4964    N        0.91603    0.36116    0.53900    1.000
    N4965    N        0.98912    0.36460    0.54455    1.000
    N4966    N        0.80426    0.38148    0.62606    1.000
    N4967    N        0.77321    0.39989    0.68577    1.000
    Si4968   Si       0.78257    0.41221    0.64518    1.000
    N4969    N        0.86435    0.39618    0.65514    1.000
    Si4970   Si       0.78308    0.36269    0.70354    1.000
    Si4971   Si       0.83631    0.36323    0.64846    1.000
    N4972    N        0.93068    0.38020    0.68690    1.000
    Si4973   Si       0.96077    0.41211    0.69049    1.000
    N4974    N        0.87785    0.41150    0.72220    1.000
    Si4975   Si       0.88657    0.38257    0.68964    1.000
    N4976    N        0.98328    0.41139    0.65247    1.000
    Si4977   Si       0.98188    0.37192    0.63290    1.000
    Si4978   Si       0.79848    0.38789    0.78592    1.000
    N4979    N        0.83686    0.40939    0.78141    1.000
    N4980    N        0.76370    0.40856    0.79968    1.000
    N4981    N        0.80127    0.37270    0.82814    1.000
    Si4982   Si       0.75522    0.38789    0.83712    1.000
    Si4983   Si       0.83550    0.38203    0.85230    1.000
    N4984    N        0.85706    0.42332    0.85019    1.000
    N4985    N        0.78793    0.37133    0.74855    1.000
    Si4986   Si       0.94572    0.41294    0.77836    1.000
    Si4987   Si       0.87457    0.39345    0.76314    1.000
    N4988    N        0.92312    0.40391    0.85703    1.000
    Si4989   Si       0.88934    0.40557    0.82759    1.000
    N4990    N        0.90538    0.41209    0.78915    1.000
    N4991    N        0.95398    0.37211    0.76840    1.000
    N4992    N        0.86870    0.36689    0.82828    1.000
    Si4993   Si       0.78667    0.36658    0.97654    1.000
    Si4994   Si       0.79366    0.40015    0.90690    1.000
    N4995    N        0.78741    0.40193    0.94952    1.000
    N4996    N        0.75793    0.38791    0.88729    1.000
    N4997    N        0.82870    0.37782    0.89555    1.000
    Si4998   Si       0.93013    0.37304    0.88396    1.000
    Si4999   Si       0.86589    0.38020    0.91979    1.000
    Si5000   Si       0.89524    0.38254    0.98875    1.000
    N5001    N        0.93816    0.36518    0.98770    1.000
    N5002    N        0.94749    0.38616    0.92062    1.000
    N5003    N        0.86797    0.36172    0.95968    1.000
    N5004    N        0.75770    0.45629    0.06164    1.000
    N5005    N        0.84746    0.43375    0.11482    1.000
    N5006    N        0.74515    0.42848    0.00093    1.000
    N5007    N        0.81160    0.44524    0.00203    1.000
    N5008    N        0.86555    0.42627    0.04351    1.000
    Si5009   Si       0.74452    0.42305    0.08456    1.000
    Si5010   Si       0.89558    0.45071    0.02356    1.000
    Si5011   Si       0.96377    0.44116    0.06292    1.000
    N5012    N        0.92730    0.46317    0.05074    1.000
    N5013    N        0.96683    0.42023    0.02204    1.000
    N5014    N        0.76345    0.42737    0.12342    1.000
    N5015    N        0.77983    0.45909    0.18325    1.000
    Si5016   Si       0.76405    0.46779    0.14154    1.000
    Si5017   Si       0.80502    0.42720    0.19479    1.000
    N5018    N        0.84535    0.47380    0.23214    1.000
    N5019    N        0.84700    0.42573    0.18572    1.000
    N5020    N        0.80223    0.42305    0.23870    1.000
    N5021    N        0.94412    0.45981    0.19295    1.000
    N5022    N        0.90678    0.42182    0.14525    1.000
    Si5023   Si       0.93682    0.46406    0.23664    1.000
    Si5024   Si       0.86788    0.44145    0.15041    1.000
    N5025    N        0.83272    0.45826    0.29270    1.000
    N5026    N        0.75847    0.45703    0.35095    1.000
    N5027    N        0.76176    0.44492    0.28113    1.000
    Si5028   Si       0.76289    0.42812    0.31890    1.000
    Si5029   Si       0.80786    0.46195    0.25723    1.000
    Si5030   Si       0.86668    0.47634    0.27107    1.000
    N5031    N        0.90508    0.45736    0.26629    1.000
    Si5032   Si       0.97561    0.46612    0.34304    1.000
    N5033    N        0.95822    0.43913    0.31418    1.000
    Si5034   Si       0.91562    0.43220    0.30093    1.000
    N5035    N        0.88043    0.43151    0.32659    1.000
    N5036    N        0.95937    0.42654    0.24754    1.000
    Si5037   Si       0.98640    0.42845    0.28344    1.000
    Si5038   Si       0.87610    0.43431    0.37026    1.000
    Si5039   Si       0.79509    0.45932    0.37452    1.000
    N5040    N        0.78579    0.43049    0.40792    1.000
    N5041    N        0.84049    0.45702    0.38873    1.000
    N5042    N        0.75346    0.44024    0.46524    1.000
    Si5043   Si       0.74545    0.43698    0.42309    1.000
    Si5044   Si       0.76901    0.47756    0.48097    1.000
    N5045    N        0.91199    0.43663    0.39239    1.000
    N5046    N        0.91531    0.42606    0.47967    1.000
    N5047    N        0.87357    0.46825    0.48393    1.000
    N5048    N        0.97683    0.46849    0.38716    1.000
    Si5049   Si       0.87270    0.42453    0.48454    1.000
    Si5050   Si       0.91719    0.47086    0.47934    1.000
    Si5051   Si       0.94820    0.44857    0.41377    1.000
    N5052    N        0.80104    0.43197    0.55307    1.000
    N5053    N        0.84549    0.44947    0.60161    1.000
    Si5054   Si       0.84397    0.43846    0.55881    1.000
    Si5055   Si       0.96208    0.45512    0.53738    1.000
    N5056    N        0.98236    0.43372    0.50278    1.000
    N5057    N        0.94417    0.42220    0.56166    1.000
    N5058    N        0.83069    0.46048    0.73729    1.000
    N5059    N        0.79104    0.45677    0.64268    1.000
    Si5060   Si       0.74693    0.46185    0.63733    1.000
    Si5061   Si       0.78896    0.47213    0.74098    1.000
    N5062    N        0.75217    0.44588    0.74262    1.000
    N5063    N        0.74389    0.42102    0.62380    1.000
    N5064    N        0.86431    0.45886    0.67350    1.000
    Si5065   Si       0.86616    0.45186    0.71551    1.000
    Si5066   Si       0.93520    0.46920    0.65217    1.000
    N5067    N        0.91218    0.44270    0.62750    1.000
    Si5068   Si       0.94007    0.47449    0.72640    1.000
    N5069    N        0.94489    0.45122    0.69035    1.000
    N5070    N        0.97381    0.47831    0.63298    1.000
    Si5071   Si       0.86963    0.43659    0.63594    1.000
    Si5072   Si       0.83253    0.45281    0.78121    1.000
    N5073    N        0.79254    0.47048    0.78493    1.000
    N5074    N        0.86001    0.47974    0.80201    1.000
    Si5075   Si       0.95623    0.43121    0.85262    1.000
    N5076    N        0.95371    0.45371    0.76299    1.000
    N5077    N        0.94444    0.47297    0.84098    1.000
    Si5078   Si       0.95279    0.47867    0.79910    1.000
    N5079    N        0.97321    0.42097    0.81339    1.000
    Si5080   Si       0.77858    0.46864    0.90666    1.000
    N5081    N        0.80642    0.43916    0.89284    1.000
    Si5082   Si       0.78079    0.43767    0.97368    1.000
    Si5083   Si       0.84973    0.44513    0.88748    1.000
    N5084    N        0.77658    0.47207    0.94984    1.000
    N5085    N        0.73778    0.45272    0.89920    1.000
    N5086    N        0.98283    0.43097    0.88596    1.000
    Si5087   Si       0.89805    0.44779    0.94666    1.000
    Si5088   Si       0.97007    0.42133    0.92602    1.000
    N5089    N        0.93989    0.45275    0.93657    1.000
    N5090    N        0.89833    0.42618    0.98448    1.000
    N5091    N        0.87256    0.42322    0.92147    1.000
    N5092    N        0.75994    0.52017    0.06986    1.000
    N5093    N        0.82157    0.49129    0.05284    1.000
    Si5094   Si       0.78642    0.48622    0.07867    1.000
    N5095    N        0.75143    0.49972    0.00499    1.000
    Si5096   Si       0.82921    0.48159    0.01138    1.000
    Si5097   Si       0.86340    0.50802    0.05739    1.000
    N5098    N        0.79406    0.49257    0.12115    1.000
    N5099    N        0.95661    0.51154    0.10682    1.000
    Si5100   Si       0.92818    0.49967    0.07370    1.000
    N5101    N        0.88726    0.49924    0.08969    1.000
    N5102    N        0.87584    0.48885    0.01783    1.000
    N5103    N        0.98394    0.51146    0.01848    1.000
    N5104    N        0.75048    0.52600    0.19533    1.000
    N5105    N        0.81690    0.51544    0.18223    1.000
    Si5106   Si       0.78090    0.49811    0.20297    1.000
    Si5107   Si       0.80932    0.52935    0.14167    1.000
    Si5108   Si       0.85429    0.49642    0.19689    1.000
    N5109    N        0.94196    0.50654    0.24027    1.000
    N5110    N        0.88036    0.52459    0.21310    1.000
    N5111    N        0.97268    0.52207    0.16994    1.000
    Si5112   Si       0.87852    0.51570    0.12998    1.000
    N5113    N        0.87089    0.48294    0.15916    1.000
    Si5114   Si       0.97822    0.47937    0.17813    1.000
    Si5115   Si       0.77717    0.52960    0.27761    1.000
    N5116    N        0.73830    0.51762    0.29024    1.000
    N5117    N        0.78580    0.49859    0.24575    1.000
    N5118    N        0.80506    0.50285    0.36914    1.000
    Si5119   Si       0.97245    0.53275    0.25766    1.000
    N5120    N        0.95102    0.50179    0.33615    1.000
    N5121    N        0.87713    0.51832    0.27786    1.000
    Si5122   Si       0.92261    0.51865    0.36386    1.000
    N5123    N        0.88213    0.50743    0.36763    1.000
    Si5124   Si       0.90741    0.53410    0.24824    1.000
    Si5125   Si       0.96280    0.53758    0.31655    1.000
    Si5126   Si       0.84446    0.50069    0.38714    1.000
    Si5127   Si       0.81997    0.52695    0.45367    1.000
    N5128    N        0.75028    0.51439    0.46673    1.000
    N5129    N        0.80857    0.48795    0.46984    1.000
    N5130    N        0.84361    0.53008    0.41912    1.000
    N5131    N        0.84260    0.53637    0.49374    1.000
    Si5132   Si       0.95293    0.52067    0.43826    1.000
    N5133    N        0.93951    0.53607    0.40038    1.000
    N5134    N        0.93892    0.47960    0.44390    1.000
    N5135    N        0.78778    0.49879    0.59198    1.000
    N5136    N        0.75811    0.48232    0.52392    1.000
    Si5137   Si       0.84160    0.49174    0.49923    1.000
    N5138    N        0.83149    0.48041    0.53924    1.000
    Si5139   Si       0.81927    0.47968    0.61806    1.000
    Si5140   Si       0.79041    0.47568    0.55266    1.000
    N5141    N        0.98646    0.48581    0.56112    1.000
    Si5142   Si       0.97870    0.50560    0.59848    1.000
    Si5143   Si       0.93937    0.52774    0.51492    1.000
    N5144    N        0.93544    0.48350    0.51632    1.000
    N5145    N        0.94399    0.53329    0.59688    1.000
    N5146    N        0.84308    0.51026    0.63829    1.000
    N5147    N        0.77847    0.50894    0.72099    1.000
    Si5148   Si       0.74959    0.53192    0.69638    1.000
    N5149    N        0.76787    0.53626    0.65461    1.000
    N5150    N        0.91118    0.50591    0.65597    1.000
    N5151    N        0.96896    0.50925    0.72017    1.000
    Si5152   Si       0.87124    0.50307    0.67159    1.000
    N5153    N        0.89725    0.47887    0.73206    1.000
    Si5154   Si       0.85206    0.50201    0.84087    1.000
    Si5155   Si       0.77119    0.49424    0.81325    1.000
    N5156    N        0.80862    0.51746    0.83052    1.000
    N5157    N        0.85478    0.53018    0.75731    1.000
    N5158    N        0.75402    0.53196    0.79803    1.000
    Si5159   Si       0.92581    0.51167    0.84986    1.000
    N5160    N        0.88493    0.52899    0.84680    1.000
    N5161    N        0.92001    0.50663    0.79014    1.000
    Si5162   Si       0.88263    0.50044    0.76915    1.000
    N5163    N        0.76527    0.51041    0.89566    1.000
    Si5164   Si       0.75318    0.50649    0.96244    1.000
    N5165    N        0.82892    0.51736    0.98596    1.000
    N5166    N        0.85527    0.48605    0.88223    1.000
    N5167    N        0.98673    0.50495    0.90901    1.000
    Si5168   Si       0.87412    0.51241    0.98118    1.000
    Si5169   Si       0.88223    0.51101    0.90771    1.000
    Si5170   Si       0.97781    0.53299    0.98114    1.000
    N5171    N        0.92186    0.50428    0.89284    1.000
    N5172    N        0.88196    0.48951    0.94567    1.000
    N5173    N        0.94343    0.52533    0.95513    1.000
    Si5174   Si       0.94799    0.49424    0.92472    1.000
    N5175    N        0.78701    0.56543    0.01745    1.000
    Si5176   Si       0.84623    0.57056    0.08913    1.000
    N5177    N        0.80913    0.59204    0.08225    1.000
    N5178    N        0.86217    0.54997    0.05386    1.000
    N5179    N        0.84472    0.54118    0.12107    1.000
    Si5180   Si       0.75576    0.53714    0.02984    1.000
    N5181    N        0.96861    0.57093    0.00484    1.000
    Si5182   Si       0.89628    0.56573    0.03099    1.000
    Si5183   Si       0.96987    0.54515    0.04164    1.000
    N5184    N        0.92918    0.53934    0.05183    1.000
    Si5185   Si       0.75818    0.56713    0.17957    1.000
    N5186    N        0.78301    0.56292    0.14238    1.000
    N5187    N        0.85194    0.58131    0.17947    1.000
    Si5188   Si       0.79967    0.59387    0.24246    1.000
    N5189    N        0.78520    0.59455    0.20168    1.000
    Si5190   Si       0.86298    0.56216    0.21540    1.000
    N5191    N        0.83045    0.56374    0.24447    1.000
    Si5192   Si       0.94862    0.54204    0.13832    1.000
    N5193    N        0.90793    0.54494    0.14221    1.000
    N5194    N        0.96775    0.57941    0.13699    1.000
    Si5195   Si       0.88376    0.58088    0.14692    1.000
    N5196    N        0.89944    0.57658    0.23687    1.000
    N5197    N        0.76939    0.57097    0.26738    1.000
    N5198    N        0.76436    0.55855    0.34376    1.000
    Si5199   Si       0.84585    0.54816    0.28230    1.000
    Si5200   Si       0.76879    0.58620    0.31041    1.000
    N5201    N        0.83241    0.56534    0.36434    1.000
    Si5202   Si       0.80244    0.53900    0.34644    1.000
    N5203    N        0.81125    0.53630    0.30514    1.000
    Si5204   Si       0.84410    0.59659    0.33637    1.000
    N5205    N        0.86797    0.57956    0.30199    1.000
    N5206    N        0.92205    0.55821    0.34113    1.000
    Si5207   Si       0.91039    0.57705    0.30467    1.000
    N5208    N        0.94111    0.55319    0.28076    1.000
    N5209    N        0.98470    0.57305    0.32746    1.000
    N5210    N        0.73874    0.54996    0.41018    1.000
    N5211    N        0.79752    0.56227    0.45865    1.000
    Si5212   Si       0.76081    0.57263    0.43827    1.000
    Si5213   Si       0.85012    0.56940    0.40412    1.000
    N5214    N        0.88822    0.58449    0.47198    1.000
    N5215    N        0.94071    0.54316    0.47354    1.000
    Si5216   Si       0.92683    0.57380    0.38167    1.000
    N5217    N        0.98256    0.59036    0.48259    1.000
    N5218    N        0.89065    0.58356    0.40073    1.000
    Si5219   Si       0.93422    0.58788    0.47847    1.000
    N5220    N        0.77855    0.55613    0.52412    1.000
    N5221    N        0.75457    0.56161    0.58695    1.000
    N5222    N        0.84649    0.58503    0.53032    1.000
    Si5223   Si       0.76632    0.58554    0.55318    1.000
    Si5224   Si       0.81426    0.57191    0.50200    1.000
    N5225    N        0.81964    0.56438    0.61190    1.000
    Si5226   Si       0.78286    0.53753    0.61393    1.000
    Si5227   Si       0.74687    0.54439    0.49707    1.000
    Si5228   Si       0.87561    0.56187    0.50730    1.000
    Si5229   Si       0.93271    0.56308    0.56633    1.000
    N5230    N        0.96621    0.55598    0.53835    1.000
    N5231    N        0.90620    0.54723    0.53392    1.000
    Si5232   Si       0.75285    0.57721    0.65955    1.000
    Si5233   Si       0.85322    0.55218    0.63629    1.000
    N5234    N        0.74590    0.57757    0.70305    1.000
    N5235    N        0.86057    0.59648    0.73725    1.000
    N5236    N        0.86350    0.54897    0.68081    1.000
    Si5237   Si       0.95841    0.54928    0.72931    1.000
    N5238    N        0.97667    0.58646    0.71375    1.000
    Si5239   Si       0.88606    0.57608    0.70711    1.000
    Si5240   Si       0.92432    0.54131    0.63545    1.000
    N5241    N        0.89095    0.56859    0.62427    1.000
    N5242    N        0.95690    0.56095    0.65833    1.000
    N5243    N        0.91522    0.55452    0.73245    1.000
    Si5244   Si       0.85297    0.56943    0.77164    1.000
    N5245    N        0.81301    0.57915    0.78579    1.000
    N5246    N        0.77969    0.57742    0.84464    1.000
    Si5247   Si       0.78938    0.55230    0.81219    1.000
    N5248    N        0.85383    0.59457    0.84887    1.000
    Si5249   Si       0.81446    0.59160    0.86472    1.000
    Si5250   Si       0.73954    0.58924    0.85648    1.000
    Si5251   Si       0.88861    0.56884    0.83851    1.000
    N5252    N        0.88835    0.57242    0.79601    1.000
    N5253    N        0.96715    0.56332    0.77117    1.000
    Si5254   Si       0.92363    0.57517    0.77127    1.000
    N5255    N        0.95471    0.54501    0.84307    1.000
    Si5256   Si       0.98124    0.54530    0.80939    1.000
    Si5257   Si       0.95792    0.58239    0.86767    1.000
    N5258    N        0.91517    0.59200    0.86330    1.000
    Si5259   Si       0.84749    0.58112    0.92593    1.000
    Si5260   Si       0.80633    0.55463    0.97941    1.000
    N5261    N        0.82802    0.58678    0.96434    1.000
    N5262    N        0.81612    0.56696    0.89965    1.000
    N5263    N        0.77038    0.54714    0.95338    1.000
    Si5264   Si       0.77691    0.54846    0.90815    1.000
    N5265    N        0.74456    0.57856    0.89872    1.000
    Si5266   Si       0.74197    0.57884    0.94175    1.000
    Si5267   Si       0.91329    0.55808    0.95348    1.000
    N5268    N        0.87950    0.55213    0.92501    1.000
    N5269    N        0.97027    0.57150    0.90886    1.000
    N5270    N        0.89207    0.55118    0.99110    1.000
    N5271    N        0.80229    0.63604    0.01458    1.000
    N5272    N        0.75310    0.61456    0.05146    1.000
    Si5273   Si       0.79189    0.60166    0.04208    1.000
    N5274    N        0.75130    0.62662    0.11256    1.000
    Si5275   Si       0.75500    0.65151    0.07439    1.000
    Si5276   Si       0.78397    0.59979    0.11816    1.000
    Si5277   Si       0.88332    0.64166    0.02008    1.000
    Si5278   Si       0.89264    0.62957    0.07901    1.000
    N5279    N        0.89801    0.60688    0.04167    1.000
    N5280    N        0.98727    0.62979    0.09138    1.000
    N5281    N        0.87609    0.60021    0.10642    1.000
    N5282    N        0.80837    0.62783    0.14201    1.000
    Si5283   Si       0.81976    0.60937    0.18146    1.000
    N5284    N        0.83403    0.64322    0.20491    1.000
    N5285    N        0.91069    0.60773    0.16995    1.000
    Si5286   Si       0.91361    0.61151    0.21594    1.000
    N5287    N        0.95672    0.61187    0.21174    1.000
    N5288    N        0.96924    0.64620    0.15252    1.000
    Si5289   Si       0.95484    0.60881    0.16746    1.000
    N5290    N        0.89591    0.64314    0.23750    1.000
    N5291    N        0.79909    0.63398    0.26064    1.000
    N5292    N        0.80666    0.60818    0.31688    1.000
    Si5293   Si       0.79982    0.65131    0.30160    1.000
    N5294    N        0.86317    0.63015    0.35641    1.000
    N5295    N        0.92622    0.61649    0.30480    1.000
    Si5296   Si       0.96015    0.61045    0.33307    1.000
    Si5297   Si       0.91840    0.64817    0.27568    1.000
    N5298    N        0.98870    0.64260    0.32906    1.000
    N5299    N        0.84077    0.60350    0.42735    1.000
    Si5300   Si       0.80642    0.61776    0.44950    1.000
    N5301    N        0.76994    0.61375    0.42881    1.000
    Si5302   Si       0.75135    0.61893    0.49376    1.000
    N5303    N        0.79498    0.61366    0.49598    1.000
    Si5304   Si       0.74091    0.64588    0.42916    1.000
    Si5305   Si       0.88517    0.61207    0.43666    1.000
    Si5306   Si       0.95925    0.63225    0.41209    1.000
    Si5307   Si       0.92913    0.65167    0.48040    1.000
    N5308    N        0.93143    0.62308    0.44469    1.000
    N5309    N        0.94950    0.61054    0.37493    1.000
    Si5310   Si       0.84029    0.61597    0.55710    1.000
    N5311    N        0.79871    0.61041    0.56975    1.000
    Si5312   Si       0.81002    0.60800    0.61182    1.000
    N5313    N        0.85709    0.62063    0.59638    1.000
    N5314    N        0.74004    0.61623    0.53513    1.000
    N5315    N        0.84512    0.65188    0.53448    1.000
    N5316    N        0.92902    0.61921    0.51067    1.000
    Si5317   Si       0.93894    0.63617    0.55096    1.000
    Si5318   Si       0.89769    0.60863    0.61093    1.000
    N5319    N        0.92795    0.60567    0.57896    1.000
    N5320    N        0.98151    0.64553    0.54185    1.000
    N5321    N        0.77986    0.60732    0.64501    1.000
    Si5322   Si       0.78437    0.64868    0.65343    1.000
    N5323    N        0.84723    0.64729    0.67327    1.000
    N5324    N        0.81094    0.65407    0.62011    1.000
    N5325    N        0.96591    0.63309    0.65383    1.000
    Si5326   Si       0.89179    0.64431    0.68450    1.000
    N5327    N        0.91000    0.60456    0.68616    1.000
    N5328    N        0.89847    0.64465    0.63659    1.000
    Si5329   Si       0.95474    0.59896    0.67909    1.000
    Si5330   Si       0.79536    0.61688    0.77609    1.000
    N5331    N        0.79725    0.64237    0.81067    1.000
    Si5332   Si       0.77694    0.65213    0.84726    1.000
    N5333    N        0.75926    0.62099    0.75250    1.000
    N5334    N        0.81593    0.65054    0.75197    1.000
    N5335    N        0.73772    0.63284    0.85197    1.000
    N5336    N        0.92056    0.61871    0.76448    1.000
    Si5337   Si       0.88038    0.63290    0.75734    1.000
    Si5338   Si       0.95121    0.64747    0.77522    1.000
    N5339    N        0.80440    0.63231    0.87686    1.000
    N5340    N        0.80428    0.64774    0.94609    1.000
    Si5341   Si       0.82516    0.62644    0.97784    1.000
    Si5342   Si       0.82705    0.65147    0.90908    1.000
    N5343    N        0.86226    0.62316    0.91249    1.000
    N5344    N        0.73845    0.62063    0.95857    1.000
    Si5345   Si       0.89322    0.63384    0.94358    1.000
    N5346    N        0.92235    0.60270    0.94607    1.000
    Si5347   Si       0.88149    0.61909    0.87236    1.000
    N5348    N        0.86937    0.63631    0.98027    1.000
    Si5349   Si       0.96336    0.60557    0.93540    1.000
    N5350    N        0.96892    0.64191    0.90992    1.000
    Si5351   Si       0.78732    0.67753    0.01476    1.000
    Si5352   Si       0.83636    0.68650    0.07512    1.000
    N5353    N        0.81819    0.70017    0.03337    1.000
    N5354    N        0.79638    0.66693    0.08552    1.000
    N5355    N        0.75021    0.67992    0.03883    1.000
    N5356    N        0.84858    0.68166    0.12013    1.000
    N5357    N        0.86401    0.65674    0.05598    1.000
    N5358    N        0.97182    0.70024    0.02904    1.000
    Si5359   Si       0.93395    0.68626    0.04787    1.000
    N5360    N        0.97126    0.70176    0.11175    1.000
    N5361    N        0.91660    0.66808    0.01228    1.000
    Si5362   Si       0.96055    0.65732    0.11168    1.000
    N5363    N        0.92799    0.65695    0.08155    1.000
    Si5364   Si       0.98832    0.67326    0.99830    1.000
    N5365    N        0.78930    0.70259    0.14668    1.000
    Si5366   Si       0.75552    0.70697    0.17716    1.000
    Si5367   Si       0.80687    0.66885    0.23415    1.000
    N5368    N        0.76711    0.68512    0.21450    1.000
    N5369    N        0.83969    0.69880    0.23197    1.000
    Si5370   Si       0.80863    0.66737    0.12899    1.000
    Si5371   Si       0.86872    0.66978    0.21668    1.000
    Si5372   Si       0.87251    0.70691    0.14613    1.000
    N5373    N        0.88350    0.68503    0.18135    1.000
    N5374    N        0.79133    0.69494    0.27364    1.000
    N5375    N        0.83445    0.67588    0.31476    1.000
    Si5376   Si       0.75154    0.69723    0.25373    1.000
    N5377    N        0.77196    0.66154    0.33177    1.000
    Si5378   Si       0.82237    0.71352    0.29689    1.000
    Si5379   Si       0.78205    0.67837    0.37006    1.000
    N5380    N        0.90008    0.67932    0.30164    1.000
    Si5381   Si       0.87296    0.66460    0.33082    1.000
    N5382    N        0.88891    0.68385    0.36779    1.000
    N5383    N        0.96667    0.70654    0.34458    1.000
    N5384    N        0.95879    0.66141    0.26875    1.000
    Si5385   Si       0.98863    0.67261    0.36010    1.000
    N5386    N        0.81817    0.67052    0.39379    1.000
    Si5387   Si       0.75134    0.69409    0.47714    1.000
    Si5388   Si       0.81377    0.69071    0.43305    1.000
    N5389    N        0.74515    0.67348    0.39052    1.000
    N5390    N        0.77645    0.70601    0.44262    1.000
    N5391    N        0.81731    0.65771    0.46111    1.000
    Si5392   Si       0.85957    0.65710    0.39002    1.000
    N5393    N        0.73762    0.65378    0.47080    1.000
    Si5394   Si       0.93194    0.69808    0.37316    1.000
    N5395    N        0.95827    0.67182    0.39438    1.000
    N5396    N        0.95740    0.68234    0.48455    1.000
    Si5397   Si       0.88177    0.69369    0.45280    1.000
    N5398    N        0.89245    0.67578    0.48980    1.000
    N5399    N        0.87930    0.65614    0.42864    1.000
    N5400    N        0.77984    0.68476    0.50941    1.000
    N5401    N        0.80093    0.70134    0.57513    1.000
    Si5402   Si       0.76870    0.70718    0.54504    1.000
    Si5403   Si       0.78124    0.69785    0.61418    1.000
    Si5404   Si       0.81190    0.65654    0.50468    1.000
    N5405    N        0.86552    0.69760    0.61013    1.000
    Si5406   Si       0.88046    0.67565    0.53159    1.000
    N5407    N        0.91521    0.67091    0.55917    1.000
    Si5408   Si       0.90830    0.70159    0.59379    1.000
    N5409    N        0.94446    0.69888    0.62058    1.000
    N5410    N        0.78335    0.66464    0.69320    1.000
    N5411    N        0.75157    0.66975    0.63633    1.000
    N5412    N        0.82664    0.70400    0.71022    1.000
    Si5413   Si       0.83483    0.66138    0.71316    1.000
    Si5414   Si       0.78975    0.70752    0.68681    1.000
    Si5415   Si       0.85495    0.65593    0.62773    1.000
    Si5416   Si       0.77435    0.65663    0.73608    1.000
    Si5417   Si       0.91134    0.68769    0.72587    1.000
    N5418    N        0.87862    0.66000    0.72447    1.000
    N5419    N        0.92252    0.67825    0.68506    1.000
    Si5420   Si       0.93795    0.66509    0.64689    1.000
    N5421    N        0.77804    0.69500    0.85785    1.000
    Si5422   Si       0.82777    0.66924    0.79063    1.000
    N5423    N        0.81765    0.70824    0.80356    1.000
    N5424    N        0.75519    0.69249    0.74911    1.000
    N5425    N        0.93473    0.68511    0.76073    1.000
    Si5426   Si       0.96577    0.68682    0.84075    1.000
    Si5427   Si       0.90027    0.67170    0.82073    1.000
    N5428    N        0.88765    0.66031    0.86080    1.000
    N5429    N        0.86963    0.65604    0.79325    1.000
    N5430    N        0.91010    0.71591    0.81912    1.000
    N5431    N        0.94232    0.65754    0.81758    1.000
    Si5432   Si       0.76100    0.71071    0.89381    1.000
    N5433    N        0.84652    0.68968    0.90227    1.000
    N5434    N        0.76586    0.69310    0.98027    1.000
    Si5435   Si       0.76100    0.65853    0.95268    1.000
    N5436    N        0.74372    0.67852    0.91793    1.000
    Si5437   Si       0.91971    0.68731    0.97270    1.000
    Si5438   Si       0.89025    0.68869    0.89316    1.000
    N5439    N        0.96061    0.67744    0.96422    1.000
    Si5440   Si       0.95328    0.68365    0.91928    1.000
    N5441    N        0.90902    0.67280    0.93144    1.000
    N5442    N        0.94163    0.69067    0.87593    1.000
    Si5443   Si       0.82931    0.74098    0.04217    1.000
    N5444    N        0.84891    0.73014    0.07904    1.000
    N5445    N        0.85619    0.75664    0.01329    1.000
    N5446    N        0.79406    0.76382    0.05114    1.000
    Si5447   Si       0.76713    0.77050    0.08600    1.000
    Si5448   Si       0.89104    0.73437    0.08586    1.000
    Si5449   Si       0.89809    0.74514    0.01329    1.000
    N5450    N        0.90961    0.72134    0.04885    1.000
    N5451    N        0.98310    0.75191    0.06571    1.000
    Si5452   Si       0.75418    0.76331    0.22130    1.000
    N5453    N        0.77636    0.74872    0.18767    1.000
    Si5454   Si       0.80419    0.74318    0.15388    1.000
    N5455    N        0.84847    0.74229    0.15830    1.000
    N5456    N        0.86357    0.77122    0.22627    1.000
    N5457    N        0.96300    0.77182    0.12999    1.000
    N5458    N        0.94060    0.77150    0.22564    1.000
    N5459    N        0.90637    0.71597    0.12205    1.000
    Si5460   Si       0.86204    0.73291    0.24410    1.000
    N5461    N        0.90523    0.72021    0.24673    1.000
    N5462    N        0.94986    0.72260    0.17803    1.000
    N5463    N        0.98179    0.72024    0.23304    1.000
    Si5464   Si       0.94648    0.72767    0.13579    1.000
    Si5465   Si       0.93806    0.72672    0.22117    1.000
    Si5466   Si       0.76921    0.74790    0.34071    1.000
    N5467    N        0.80625    0.75025    0.31832    1.000
    Si5468   Si       0.84467    0.76932    0.31156    1.000
    N5469    N        0.85951    0.73714    0.28852    1.000
    N5470    N        0.74208    0.71990    0.32122    1.000
    N5471    N        0.92488    0.74699    0.31463    1.000
    Si5472   Si       0.97048    0.74301    0.32282    1.000
    Si5473   Si       0.91177    0.76670    0.35051    1.000
    Si5474   Si       0.90077    0.72090    0.29155    1.000
    N5475    N        0.78233    0.72359    0.37446    1.000
    Si5476   Si       0.83401    0.76049    0.44150    1.000
    Si5477   Si       0.76505    0.73514    0.41278    1.000
    N5478    N        0.84617    0.71840    0.44044    1.000
    N5479    N        0.79357    0.76692    0.42582    1.000
    N5480    N        0.91251    0.72581    0.45080    1.000
    N5481    N        0.92034    0.73982    0.38265    1.000
    N5482    N        0.97673    0.75314    0.47482    1.000
    Si5483   Si       0.94445    0.72347    0.48035    1.000
    Si5484   Si       0.90818    0.75622    0.42114    1.000
    N5485    N        0.83694    0.75597    0.60014    1.000
    N5486    N        0.76253    0.74940    0.53637    1.000
    N5487    N        0.74807    0.72865    0.60869    1.000
    Si5488   Si       0.84015    0.71752    0.57744    1.000
    N5489    N        0.86954    0.71486    0.54546    1.000
    N5490    N        0.93194    0.74030    0.51872    1.000
    Si5491   Si       0.89803    0.74707    0.54410    1.000
    N5492    N        0.90970    0.74505    0.58591    1.000
    N5493    N        0.97202    0.76826    0.60736    1.000
    Si5494   Si       0.98073    0.72566    0.62111    1.000
    Si5495   Si       0.85480    0.73454    0.71167    1.000
    N5496    N        0.76402    0.74138    0.69924    1.000
    Si5497   Si       0.84576    0.72996    0.63714    1.000
    N5498    N        0.83753    0.76731    0.73244    1.000
    Si5499   Si       0.74136    0.73224    0.73691    1.000
    N5500    N        0.80733    0.71279    0.64681    1.000
    N5501    N        0.86702    0.74440    0.67041    1.000
    Si5502   Si       0.98288    0.77064    0.74288    1.000
    N5503    N        0.89193    0.72655    0.73253    1.000
    N5504    N        0.97487    0.76988    0.69816    1.000
    Si5505   Si       0.90935    0.76389    0.74526    1.000
    N5506    N        0.76541    0.75662    0.83179    1.000
    Si5507   Si       0.79833    0.72715    0.83614    1.000
    N5508    N        0.75436    0.76218    0.76398    1.000
    N5509    N        0.82501    0.74713    0.86499    1.000
    N5510    N        0.94767    0.75424    0.76182    1.000
    Si5511   Si       0.91140    0.74581    0.85527    1.000
    N5512    N        0.94839    0.76471    0.86588    1.000
    Si5513   Si       0.94052    0.71885    0.78609    1.000
    N5514    N        0.97708    0.71733    0.81221    1.000
    N5515    N        0.88353    0.77676    0.84304    1.000
    Si5516   Si       0.77562    0.73193    0.96155    1.000
    Si5517   Si       0.83196    0.73142    0.90573    1.000
    N5518    N        0.85308    0.75440    0.93646    1.000
    N5519    N        0.79547    0.76483    0.98150    1.000
    N5520    N        0.79014    0.72560    0.92158    1.000
    Si5521   Si       0.83862    0.77174    0.97535    1.000
    N5522    N        0.97568    0.72142    0.92157    1.000
    Si5523   Si       0.96292    0.76048    0.90830    1.000
    Si5524   Si       0.89633    0.75160    0.93414    1.000
    N5525    N        0.90697    0.73016    0.97394    1.000
    N5526    N        0.89659    0.73301    0.89439    1.000
    N5527    N        0.98245    0.75061    0.98511    1.000
    Si5528   Si       0.77863    0.78704    0.01808    1.000
    N5529    N        0.79853    0.82467    0.01368    1.000
    Si5530   Si       0.89056    0.81053    0.09826    1.000
    N5531    N        0.95728    0.81463    0.06259    1.000
    Si5532   Si       0.92149    0.81542    0.03790    1.000
    N5533    N        0.92289    0.78146    0.01015    1.000
    Si5534   Si       0.95574    0.77840    0.08589    1.000
    N5535    N        0.88416    0.82864    0.05968    1.000
    N5536    N        0.91214    0.77375    0.08792    1.000
    N5537    N        0.85692    0.80257    0.12193    1.000
    Si5538   Si       0.81480    0.81168    0.13399    1.000
    N5539    N        0.82285    0.79855    0.17553    1.000
    Si5540   Si       0.79930    0.81160    0.20987    1.000
    N5541    N        0.78394    0.78743    0.24143    1.000
    Si5542   Si       0.86111    0.78337    0.16153    1.000
    N5543    N        0.79141    0.77307    0.12314    1.000
    Si5544   Si       0.93564    0.80083    0.14945    1.000
    N5545    N        0.89479    0.82430    0.23959    1.000
    Si5546   Si       0.90329    0.78982    0.21466    1.000
    Si5547   Si       0.97910    0.78483    0.21312    1.000
    N5548    N        0.96956    0.81291    0.17689    1.000
    N5549    N        0.90220    0.79100    0.17165    1.000
    N5550    N        0.83959    0.80649    0.29236    1.000
    Si5551   Si       0.76651    0.80949    0.27413    1.000
    Si5552   Si       0.74716    0.81599    0.33531    1.000
    N5553    N        0.82494    0.82443    0.36423    1.000
    Si5554   Si       0.85466    0.80961    0.25117    1.000
    N5555    N        0.74452    0.78418    0.29975    1.000
    N5556    N        0.74677    0.77836    0.36357    1.000
    Si5557   Si       0.96772    0.81605    0.34144    1.000
    N5558    N        0.93039    0.80477    0.35901    1.000
    N5559    N        0.96932    0.82006    0.29967    1.000
    N5560    N        0.87031    0.77837    0.34534    1.000
    N5561    N        0.98616    0.77584    0.34810    1.000
    N5562    N        0.82362    0.78507    0.47433    1.000
    Si5563   Si       0.78554    0.79595    0.45527    1.000
    N5564    N        0.75238    0.79248    0.48355    1.000
    Si5565   Si       0.85710    0.80177    0.38173    1.000
    Si5566   Si       0.92629    0.82419    0.40029    1.000
    N5567    N        0.93630    0.78935    0.42727    1.000
    N5568    N        0.97991    0.82559    0.46783    1.000
    Si5569   Si       0.97692    0.78716    0.44689    1.000
    N5570    N        0.86490    0.77327    0.41469    1.000
    N5571    N        0.87320    0.83387    0.49352    1.000
    N5572    N        0.78121    0.79741    0.59337    1.000
    Si5573   Si       0.82699    0.79531    0.58721    1.000
    Si5574   Si       0.77473    0.78908    0.54856    1.000
    Si5575   Si       0.84442    0.80094    0.50806    1.000
    N5576    N        0.81677    0.80087    0.54397    1.000
    N5577    N        0.85502    0.82329    0.60480    1.000
    N5578    N        0.75128    0.82453    0.54335    1.000
    Si5579   Si       0.75050    0.77201    0.61136    1.000
    N5580    N        0.93976    0.81234    0.51414    1.000
    N5581    N        0.92700    0.81765    0.58622    1.000
    N5582    N        0.87899    0.78243    0.52927    1.000
    Si5583   Si       0.90004    0.82140    0.52601    1.000
    Si5584   Si       0.93069    0.77822    0.60666    1.000
    Si5585   Si       0.95842    0.77282    0.51535    1.000
    N5586    N        0.79077    0.81269    0.69611    1.000
    Si5587   Si       0.82915    0.80487    0.70890    1.000
    N5588    N        0.85407    0.81197    0.67303    1.000
    Si5589   Si       0.75923    0.78250    0.68978    1.000
    N5590    N        0.74189    0.78990    0.65037    1.000
    N5591    N        0.90621    0.79042    0.71044    1.000
    Si5592   Si       0.94372    0.79732    0.68657    1.000
    N5593    N        0.92145    0.78973    0.64971    1.000
    Si5594   Si       0.88574    0.78316    0.67260    1.000
    N5595    N        0.97940    0.81231    0.74627    1.000
    Si5596   Si       0.84634    0.79157    0.76814    1.000
    N5597    N        0.75038    0.81550    0.79612    1.000
    N5598    N        0.81937    0.78149    0.80356    1.000
    Si5599   Si       0.83991    0.78012    0.84321    1.000
    Si5600   Si       0.77628    0.78070    0.79755    1.000
    N5601    N        0.83541    0.81803    0.86519    1.000
    N5602    N        0.83924    0.82792    0.74400    1.000
    Si5603   Si       0.96695    0.79636    0.84005    1.000
    Si5604   Si       0.89662    0.80537    0.81273    1.000
    N5605    N        0.93967    0.81266    0.80991    1.000
    N5606    N        0.88671    0.78568    0.77616    1.000
    Si5607   Si       0.95663    0.83552    0.77687    1.000
    N5608    N        0.85615    0.81166    0.97400    1.000
    N5609    N        0.97260    0.81888    0.97377    1.000
    N5610    N        0.93340    0.77652    0.93598    1.000
    Si5611   Si       0.95042    0.78047    0.97706    1.000
    N5612    N        0.82148    0.86014    0.06776    1.000
    Si5613   Si       0.78919    0.85830    0.03829    1.000
    N5614    N        0.85295    0.86733    0.00359    1.000
    Si5615   Si       0.80828    0.88320    0.10181    1.000
    N5616    N        0.74769    0.85375    0.05002    1.000
    Si5617   Si       0.85996    0.86220    0.04774    1.000
    N5618    N        0.92016    0.85087    0.01266    1.000
    Si5619   Si       0.94438    0.88626    0.01720    1.000
    N5620    N        0.98243    0.87764    0.03753    1.000
    Si5621   Si       0.84368    0.87675    0.21951    1.000
    N5622    N        0.80252    0.85335    0.13431    1.000
    Si5623   Si       0.78558    0.87087    0.17046    1.000
    N5624    N        0.77043    0.83783    0.19392    1.000
    N5625    N        0.82897    0.83629    0.22865    1.000
    N5626    N        0.92226    0.83436    0.12504    1.000
    N5627    N        0.95476    0.85949    0.23068    1.000
    Si5628   Si       0.93120    0.87589    0.13042    1.000
    N5629    N        0.95853    0.88249    0.16345    1.000
    Si5630   Si       0.91074    0.86456    0.23410    1.000
    Si5631   Si       0.97414    0.85403    0.19233    1.000
    N5632    N        0.88502    0.88255    0.20481    1.000
    N5633    N        0.83503    0.87907    0.32062    1.000
    Si5634   Si       0.75725    0.87201    0.28451    1.000
    N5635    N        0.77865    0.83749    0.30767    1.000
    Si5636   Si       0.82004    0.83693    0.32143    1.000
    N5637    N        0.74474    0.84258    0.25415    1.000
    Si5638   Si       0.97696    0.84503    0.26293    1.000
    N5639    N        0.90084    0.88150    0.27399    1.000
    N5640    N        0.97383    0.85541    0.35710    1.000
    N5641    N        0.75749    0.84286    0.36994    1.000
    N5642    N        0.81653    0.88283    0.39381    1.000
    Si5643   Si       0.76951    0.86787    0.45026    1.000
    Si5644   Si       0.79680    0.84337    0.39120    1.000
    N5645    N        0.74940    0.86142    0.48744    1.000
    N5646    N        0.78670    0.83370    0.43181    1.000
    Si5647   Si       0.89120    0.87527    0.40212    1.000
    N5648    N        0.92573    0.87895    0.47897    1.000
    N5649    N        0.86929    0.88611    0.43866    1.000
    Si5650   Si       0.88037    0.87575    0.47999    1.000
    N5651    N        0.93277    0.86572    0.41250    1.000
    N5652    N        0.88324    0.83435    0.39581    1.000
    Si5653   Si       0.95562    0.84953    0.49886    1.000
    N5654    N        0.78767    0.87560    0.58811    1.000
    Si5655   Si       0.76285    0.83813    0.58460    1.000
    N5656    N        0.88743    0.85325    0.55177    1.000
    Si5657   Si       0.95602    0.84910    0.57250    1.000
    N5658    N        0.97186    0.86545    0.53507    1.000
    Si5659   Si       0.89309    0.84291    0.59401    1.000
    N5660    N        0.93372    0.88354    0.58365    1.000
    Si5661   Si       0.85023    0.84324    0.64523    1.000
    N5662    N        0.80138    0.87862    0.72193    1.000
    N5663    N        0.81191    0.86183    0.65440    1.000
    Si5664   Si       0.78728    0.85651    0.68953    1.000
    N5665    N        0.74467    0.86253    0.69104    1.000
    Si5666   Si       0.93520    0.89290    0.73876    1.000
    Si5667   Si       0.98759    0.84387    0.71525    1.000
    N5668    N        0.97626    0.88101    0.73762    1.000
    N5669    N        0.89317    0.86051    0.63869    1.000
    N5670    N        0.95364    0.83958    0.68791    1.000
    Si5671   Si       0.92401    0.86737    0.66931    1.000
    N5672    N        0.76555    0.86317    0.85013    1.000
    N5673    N        0.80445    0.86576    0.79033    1.000
    Si5674   Si       0.82802    0.86676    0.75581    1.000
    Si5675   Si       0.85770    0.85187    0.85406    1.000
    Si5676   Si       0.79621    0.88474    0.82709    1.000
    N5677    N        0.83292    0.88680    0.85107    1.000
    N5678    N        0.86084    0.89311    0.76483    1.000
    Si5679   Si       0.98464    0.87115    0.83920    1.000
    N5680    N        0.92218    0.85655    0.76110    1.000
    Si5681   Si       0.89116    0.87232    0.78713    1.000
    N5682    N        0.87333    0.84238    0.81416    1.000
    N5683    N        0.98212    0.83268    0.85981    1.000
    N5684    N        0.73627    0.85100    0.91299    1.000
    N5685    N        0.79707    0.85250    0.95127    1.000
    Si5686   Si       0.75397    0.85682    0.95224    1.000
    Si5687   Si       0.74988    0.88205    0.88564    1.000
    Si5688   Si       0.82337    0.83847    0.98227    1.000
    N5689    N        0.85341    0.88621    0.92389    1.000
    Si5690   Si       0.81135    0.88900    0.92946    1.000
    N5691    N        0.89597    0.86483    0.87544    1.000
    N5692    N        0.97128    0.86182    0.91909    1.000
    Si5693   Si       0.95160    0.85408    0.95782    1.000
    Si5694   Si       0.89580    0.88305    0.91710    1.000
    Si5695   Si       0.88737    0.84340    0.98345    1.000
    N5696    N        0.90980    0.85439    0.94959    1.000
    N5697    N        0.96674    0.88884    0.97836    1.000
    N5698    N        0.83636    0.91463    0.10881    1.000
    N5699    N        0.77041    0.90081    0.09272    1.000
    Si5700   Si       0.75746    0.94171    0.09057    1.000
    N5701    N        0.85538    0.93820    0.01363    1.000
    N5702    N        0.79360    0.89771    0.02030    1.000
    Si5703   Si       0.83101    0.90475    0.00134    1.000
    Si5704   Si       0.88873    0.93594    0.04067    1.000
    Si5705   Si       0.87995    0.91596    0.10031    1.000
    N5706    N        0.92897    0.92533    0.02471    1.000
    N5707    N        0.88036    0.89800    0.06109    1.000
    N5708    N        0.89558    0.95297    0.08297    1.000
    N5709    N        0.95110    0.88930    0.09582    1.000
    Si5710   Si       0.82246    0.93735    0.18804    1.000
    Si5711   Si       0.75465    0.94217    0.15991    1.000
    N5712    N        0.75337    0.89863    0.16651    1.000
    N5713    N        0.86403    0.94720    0.17919    1.000
    N5714    N        0.81822    0.89316    0.18925    1.000
    Si5715   Si       0.89203    0.91470    0.17821    1.000
    N5716    N        0.89896    0.90403    0.13742    1.000
    N5717    N        0.92533    0.93721    0.19544    1.000
    Si5718   Si       0.96288    0.92605    0.17650    1.000
    N5719    N        0.78055    0.91622    0.34663    1.000
    N5720    N        0.77632    0.91015    0.27658    1.000
    Si5721   Si       0.80882    0.93145    0.25935    1.000
    Si5722   Si       0.82095    0.90234    0.35495    1.000
    N5723    N        0.84023    0.90173    0.25392    1.000
    Si5724   Si       0.75556    0.92278    0.31191    1.000
    N5725    N        0.84761    0.93682    0.36064    1.000
    Si5726   Si       0.86383    0.89651    0.29023    1.000
    Si5727   Si       0.88881    0.93415    0.34931    1.000
    N5728    N        0.88499    0.93492    0.30546    1.000
    Si5729   Si       0.92454    0.91795    0.29033    1.000
    N5730    N        0.95170    0.91209    0.32264    1.000
    N5731    N        0.93971    0.94237    0.25827    1.000
    N5732    N        0.90571    0.90081    0.36990    1.000
    Si5733   Si       0.95021    0.89149    0.36392    1.000
    Si5734   Si       0.98308    0.94546    0.24855    1.000
    Si5735   Si       0.82898    0.90320    0.42930    1.000
    N5736    N        0.80272    0.89345    0.46038    1.000
    N5737    N        0.83198    0.94586    0.42612    1.000
    Si5738   Si       0.94417    0.89514    0.44209    1.000
    N5739    N        0.97523    0.92681    0.37882    1.000
    N5740    N        0.98738    0.89322    0.43787    1.000
    N5741    N        0.93683    0.93972    0.42989    1.000
    Si5742   Si       0.77959    0.91057    0.56464    1.000
    N5743    N        0.77942    0.90850    0.52315    1.000
    Si5744   Si       0.84490    0.93894    0.60029    1.000
    N5745    N        0.80997    0.94144    0.57276    1.000
    N5746    N        0.85304    0.89853    0.50782    1.000
    Si5747   Si       0.81376    0.91450    0.49704    1.000
    Si5748   Si       0.73702    0.89931    0.50588    1.000
    N5749    N        0.87011    0.90497    0.58913    1.000
    N5750    N        0.97670    0.93277    0.53165    1.000
    N5751    N        0.90779    0.92378    0.53681    1.000
    Si5752   Si       0.94413    0.92020    0.55857    1.000
    Si5753   Si       0.87718    0.89514    0.54636    1.000
    Si5754   Si       0.90676    0.90318    0.61521    1.000
    N5755    N        0.93631    0.94403    0.59768    1.000
    N5756    N        0.82405    0.92603    0.63668    1.000
    Si5757   Si       0.78360    0.91713    0.72942    1.000
    N5758    N        0.75669    0.90875    0.63709    1.000
    N5759    N        0.85338    0.93168    0.70428    1.000
    N5760    N        0.78319    0.94026    0.69099    1.000
    Si5761   Si       0.74675    0.93995    0.66676    1.000
    Si5762   Si       0.79762    0.89333    0.62814    1.000
    Si5763   Si       0.82553    0.94593    0.67492    1.000
    Si5764   Si       0.96753    0.93134    0.62769    1.000
    N5765    N        0.94247    0.89856    0.64688    1.000
    N5766    N        0.88941    0.93561    0.64239    1.000
    Si5767   Si       0.89205    0.92873    0.68538    1.000
    N5768    N        0.91069    0.89305    0.70312    1.000
    N5769    N        0.77477    0.92103    0.81585    1.000
    Si5770   Si       0.84643    0.92896    0.85665    1.000
    N5771    N        0.80783    0.94060    0.75611    1.000
    Si5772   Si       0.85092    0.93342    0.75083    1.000
    N5773    N        0.74558    0.90979    0.74973    1.000
    N5774    N        0.83754    0.94470    0.81794    1.000
    Si5775   Si       0.74213    0.93133    0.78816    1.000
    N5776    N        0.92928    0.93037    0.76052    1.000
    Si5777   Si       0.94121    0.92826    0.80400    1.000
    N5778    N        0.98361    0.91560    0.80180    1.000
    Si5779   Si       0.91539    0.89797    0.85694    1.000
    N5780    N        0.91227    0.89640    0.81552    1.000
    N5781    N        0.88790    0.93083    0.86617    1.000
    N5782    N        0.95733    0.89666    0.86372    1.000
    N5783    N        0.77722    0.90541    0.90840    1.000
    N5784    N        0.81066    0.91650    0.96407    1.000
    Si5785   Si       0.77317    0.91899    0.98743    1.000
    N5786    N        0.74213    0.89540    0.97075    1.000
    N5787    N        0.82305    0.94664    0.88757    1.000
    Si5788   Si       0.78365    0.94870    0.90914    1.000
    Si5789   Si       0.96901    0.90215    0.90727    1.000
    N5790    N        0.92615    0.91470    0.92146    1.000
    N5791    N        0.79379    0.96479    0.08677    1.000
    Si5792   Si       0.78196    0.00502    0.08043    1.000
    N5793    N        0.76246    0.00730    0.04100    1.000
    N5794    N        0.83072    0.00118    0.99677    1.000
    N5795    N        0.97331    0.97446    0.03168    1.000
    Si5796   Si       0.90739    0.99051    0.10007    1.000
    N5797    N        0.90061    0.98208    0.01481    1.000
    Si5798   Si       0.93964    0.96360    0.00544    1.000
    N5799    N        0.95138    0.99855    0.09217    1.000
    N5800    N        0.80672    0.95443    0.22341    1.000
    Si5801   Si       0.82116    0.95455    0.11765    1.000
    N5802    N        0.84657    0.98958    0.12773    1.000
    Si5803   Si       0.77420    0.98186    0.21519    1.000
    N5804    N        0.74105    0.96132    0.19522    1.000
    N5805    N        0.79738    0.95059    0.15438    1.000
    Si5806   Si       0.87402    0.98592    0.16375    1.000
    Si5807   Si       0.95614    0.99115    0.13526    1.000
    Si5808   Si       0.91617    0.96237    0.22792    1.000
    N5809    N        0.93912    0.99909    0.21887    1.000
    N5810    N        0.97283    0.95237    0.14199    1.000
    N5811    N        0.91218    0.99382    0.14316    1.000
    N5812    N        0.82467    0.96299    0.28719    1.000
    Si5813   Si       0.79985    0.99849    0.27822    1.000
    N5814    N        0.76349    0.98882    0.25580    1.000
    Si5815   Si       0.76096    0.95165    0.36647    1.000
    Si5816   Si       0.86740    0.97312    0.29029    1.000
    Si5817   Si       0.89097    0.00336    0.35656    1.000
    N5818    N        0.91313    0.96791    0.36378    1.000
    N5819    N        0.88128    0.97826    0.24885    1.000
    N5820    N        0.88444    0.00631    0.31351    1.000
    N5821    N        0.79203    0.97998    0.37243    1.000
    Si5822   Si       0.83137    0.96690    0.38752    1.000
    Si5823   Si       0.84539    0.96512    0.46334    1.000
    N5824    N        0.74955    0.99661    0.45409    1.000
    N5825    N        0.85700    0.00135    0.38530    1.000
    N5826    N        0.84218    0.00685    0.45127    1.000
    N5827    N        0.73550    0.95328    0.40214    1.000
    N5828    N        0.91417    0.00862    0.42925    1.000
    N5829    N        0.88615    0.95590    0.47395    1.000
    Si5830   Si       0.94851    0.96038    0.39092    1.000
    N5831    N        0.94012    0.97341    0.49095    1.000
    N5832    N        0.97057    0.99734    0.39709    1.000
    Si5833   Si       0.92033    0.97214    0.45308    1.000
    Si5834   Si       0.79839    0.98196    0.58242    1.000
    Si5835   Si       0.79378    0.99047    0.51312    1.000
    N5836    N        0.75268    0.97720    0.52168    1.000
    N5837    N        0.75453    0.98918    0.58498    1.000
    N5838    N        0.81726    0.00396    0.54834    1.000
    Si5839   Si       0.86029    0.00589    0.56469    1.000
    N5840    N        0.86294    0.97953    0.59814    1.000
    N5841    N        0.81412    0.95706    0.49205    1.000
    Si5842   Si       0.97694    0.97380    0.51634    1.000
    N5843    N        0.89028    0.99132    0.53644    1.000
    Si5844   Si       0.90574    0.95857    0.51200    1.000
    N5845    N        0.96353    0.00326    0.54686    1.000
    Si5846   Si       0.90412    0.97153    0.61757    1.000
    N5847    N        0.80205    0.00096    0.62209    1.000
    Si5848   Si       0.75760    0.00502    0.62650    1.000
    N5849    N        0.84248    0.98726    0.67449    1.000
    N5850    N        0.98224    0.96993    0.72577    1.000
    Si5851   Si       0.88366    0.99795    0.68715    1.000
    N5852    N        0.91449    0.99595    0.65321    1.000
    Si5853   Si       0.94703    0.98352    0.68561    1.000
    N5854    N        0.97537    0.95996    0.66007    1.000
    N5855    N        0.91122    0.96714    0.70589    1.000
    Si5856   Si       0.85258    0.98391    0.80222    1.000
    N5857    N        0.81419    0.99837    0.79543    1.000
    N5858    N        0.75408    0.97303    0.78671    1.000
    Si5859   Si       0.79735    0.95662    0.79411    1.000
    N5860    N        0.76494    0.00476    0.84683    1.000
    Si5861   Si       0.90373    0.96806    0.85552    1.000
    Si5862   Si       0.97277    0.98581    0.83524    1.000
    N5863    N        0.87269    0.96881    0.76628    1.000
    N5864    N        0.87721    0.99596    0.83569    1.000
    N5865    N        0.93720    0.96188    0.82900    1.000
    Si5866   Si       0.97856    0.99959    0.75595    1.000
    N5867    N        0.93541    0.00398    0.76362    1.000
    Si5868   Si       0.91273    0.97051    0.74962    1.000
    Si5869   Si       0.79214    0.98922    0.97658    1.000
    Si5870   Si       0.84125    0.97580    0.91826    1.000
    N5871    N        0.80320    0.97934    0.93626    1.000
    N5872    N        0.74320    0.96539    0.90308    1.000
    Si5873   Si       0.74508    0.00472    0.88508    1.000
    Si5874   Si       0.86428    0.97464    0.98991    1.000
    N5875    N        0.76429    0.95960    0.99287    1.000
    Si5876   Si       0.91539    0.95665    0.93512    1.000
    N5877    N        0.91806    0.98254    0.89552    1.000
    N5878    N        0.94500    0.97383    0.96262    1.000
    N5879    N        0.87278    0.96639    0.94750    1.000
