# CIF file generated by openbabel 3.1.1, see https://openbabel.org
data_I
_chemical_name_common '3.01-68.aims'
_cell_length_a 39.9292
_cell_length_b 39.9292
_cell_length_c 39.9292
_cell_angle_alpha 90
_cell_angle_beta 90
_cell_angle_gamma 90
loop_
    _atom_site_label
    _atom_site_type_symbol
    _atom_site_fract_x
    _atom_site_fract_y
    _atom_site_fract_z
    _atom_site_occupancy
    N0       N        0.02307    0.06519    0.05580    1.000
    Si1      Si       0.01075    0.02351    0.06708    1.000
    N2       N        0.04520    0.10942    0.00245    1.000
    Si3      Si       0.04601    0.06678    0.01539    1.000
    Si4      Si       0.04729    0.08712    0.08471    1.000
    Si5      Si       0.01934    0.14129    0.01639    1.000
    Si6      Si       0.03436    0.16764    0.08991    1.000
    N7       N        0.03929    0.17128    0.04165    1.000
    N8       N        0.00929    0.25260    0.10179    1.000
    N9       N        0.99092    0.17292    0.08824    1.000
    Si10     Si       0.03599    0.05977    0.16377    1.000
    N11      N        0.03781    0.12550    0.21930    1.000
    N12      N        0.00308    0.08629    0.17616    1.000
    N13      N        0.02438    0.01668    0.16521    1.000
    Si14     Si       0.99496    0.11911    0.20937    1.000
    Si15     Si       0.00386    0.19693    0.20154    1.000
    N16      N        0.04546    0.18760    0.19245    1.000
    N17      N        0.99869    0.22474    0.23741    1.000
    N18      N        0.98823    0.21956    0.16965    1.000
    N19      N        0.99676    0.08569    0.33912    1.000
    Si20     Si       0.01169    0.12607    0.32831    1.000
    N21      N        0.04419    0.02993    0.36785    1.000
    N22      N        0.02834    0.06113    0.24963    1.000
    Si23     Si       0.01817    0.06776    0.37095    1.000
    Si24     Si       0.98526    0.05805    0.24727    1.000
    N25      N        0.01169    0.21435    0.30537    1.000
    Si26     Si       0.02916    0.21847    0.26699    1.000
    N27      N        0.00586    0.16186    0.35350    1.000
    Si28     Si       0.03725    0.22813    0.33952    1.000
    N29      N        0.98672    0.14642    0.29722    1.000
    Si30     Si       0.98612    0.18373    0.32062    1.000
    Si31     Si       0.02947    0.11710    0.43061    1.000
    Si32     Si       0.03063    0.02152    0.40871    1.000
    N33      N        0.04386    0.09586    0.39379    1.000
    N34      N        0.99194    0.09780    0.44273    1.000
    N35      N        0.99300    0.04400    0.39830    1.000
    N36      N        0.01852    0.22370    0.37650    1.000
    Si37     Si       0.00209    0.18441    0.38939    1.000
    Si38     Si       0.03327    0.25008    0.40561    1.000
    N39      N        0.99793    0.25159    0.43237    1.000
    N40      N        0.02438    0.16074    0.42413    1.000
    N41      N        0.03060    0.19918    0.48204    1.000
    N42      N        0.01663    0.06064    0.55187    1.000
    Si43     Si       0.01418    0.10571    0.54363    1.000
    N44      N        0.01173    0.12708    0.50509    1.000
    Si45     Si       0.03109    0.16431    0.50997    1.000
    N46      N        0.01136    0.17589    0.54543    1.000
    Si47     Si       0.02956    0.20320    0.57623    1.000
    N48      N        0.00284    0.24064    0.58547    1.000
    Si49     Si       0.02108    0.23043    0.51118    1.000
    N50      N        0.00270    0.17992    0.60785    1.000
    N51      N        0.01538    0.06575    0.62467    1.000
    Si52     Si       0.01418    0.02352    0.62187    1.000
    N53      N        0.02095    0.10369    0.68278    1.000
    Si54     Si       0.02271    0.05290    0.73800    1.000
    Si55     Si       0.04373    0.12425    0.71645    1.000
    Si56     Si       0.04342    0.08805    0.64978    1.000
    N57      N        0.03307    0.01125    0.73034    1.000
    N58      N        0.00420    0.00852    0.66268    1.000
    N59      N        0.00892    0.14063    0.73828    1.000
    Si60     Si       0.04182    0.24966    0.72560    1.000
    N61      N        0.00435    0.18060    0.68099    1.000
    N62      N        0.99821    0.25491    0.73000    1.000
    N63      N        0.99996    0.24353    0.65517    1.000
    Si64     Si       0.04641    0.19088    0.68399    1.000
    N65      N        0.02452    0.08205    0.85864    1.000
    N66      N        0.02958    0.05331    0.78246    1.000
    Si67     Si       0.01979    0.08424    0.81501    1.000
    Si68     Si       0.00319    0.02503    0.79892    1.000
    N69      N        0.02066    0.01187    0.83772    1.000
    N70      N        0.99497    0.11876    0.80219    1.000
    Si71     Si       0.03053    0.13976    0.77758    1.000
    N72      N        0.01699    0.17775    0.79706    1.000
    N73      N        0.02145    0.22091    0.84813    1.000
    Si74     Si       0.99541    0.25585    0.84089    1.000
    Si75     Si       0.04555    0.19994    0.81951    1.000
    Si76     Si       0.01313    0.04005    0.86935    1.000
    Si77     Si       0.01960    0.05251    0.94086    1.000
    N78      N        0.03368    0.02626    0.90496    1.000
    Si79     Si       0.02367    0.11235    0.89019    1.000
    N80      N        0.03324    0.04092    0.98106    1.000
    N81      N        0.03661    0.09135    0.92702    1.000
    Si82     Si       0.03526    0.17076    0.94457    1.000
    Si83     Si       0.00301    0.19612    0.87908    1.000
    N84      N        0.00955    0.16082    0.97725    1.000
    N85      N        0.02617    0.16075    0.90187    1.000
    N86      N        0.02969    0.21319    0.93764    1.000
    Si87     Si       0.98619    0.22287    0.93638    1.000
    N88      N        0.01690    0.31593    0.07557    1.000
    N89      N        0.01453    0.27589    0.02747    1.000
    Si90     Si       0.00393    0.36262    0.07052    1.000
    Si91     Si       0.99696    0.27934    0.06870    1.000
    N92      N        0.04344    0.36649    0.04975    1.000
    N93      N        0.99541    0.35859    0.11637    1.000
    Si94     Si       0.03994    0.47398    0.10610    1.000
    N95      N        0.02082    0.48088    0.06148    1.000
    Si96     Si       0.01968    0.43672    0.05358    1.000
    N97      N        0.04121    0.42828    0.01709    1.000
    N98      N        0.99312    0.40726    0.06824    1.000
    Si99     Si       0.02252    0.36422    0.23870    1.000
    Si100    Si       0.03431    0.35204    0.13336    1.000
    N101     N        0.03052    0.32169    0.16300    1.000
    N102     N        0.00595    0.28667    0.20631    1.000
    Si103    Si       0.04741    0.30343    0.19924    1.000
    N104     N        0.01649    0.39650    0.21110    1.000
    N105     N        0.00647    0.48080    0.13401    1.000
    N106     N        0.04353    0.45351    0.18338    1.000
    Si107    Si       0.00772    0.47829    0.17957    1.000
    N108     N        0.00538    0.33837    0.31692    1.000
    N109     N        0.99913    0.28530    0.27715    1.000
    Si110    Si       0.04025    0.28460    0.29251    1.000
    Si111    Si       0.04587    0.35568    0.30785    1.000
    N112     N        0.03041    0.38287    0.27642    1.000
    N113     N        0.02089    0.44238    0.32338    1.000
    Si114    Si       0.02026    0.48630    0.33246    1.000
    Si115    Si       0.00535    0.41720    0.29182    1.000
    N116     N        0.04305    0.49003    0.37049    1.000
    N117     N        0.04961    0.50349    0.30519    1.000
    N118     N        0.99090    0.44135    0.25985    1.000
    N119     N        0.02772    0.31571    0.45181    1.000
    Si120    Si       0.00206    0.28160    0.46276    1.000
    Si121    Si       0.99901    0.34846    0.46012    1.000
    N122     N        0.02982    0.27033    0.49456    1.000
    N123     N        0.00489    0.43172    0.49136    1.000
    Si124    Si       0.02673    0.50507    0.45690    1.000
    Si125    Si       0.02212    0.46113    0.39553    1.000
    Si126    Si       0.02941    0.42728    0.45883    1.000
    N127     N        0.01228    0.38625    0.44455    1.000
    N128     N        0.02601    0.46572    0.43757    1.000
    N129     N        0.99236    0.38407    0.37863    1.000
    Si130    Si       0.02710    0.38601    0.40356    1.000
    N131     N        0.04319    0.42413    0.38724    1.000
    N132     N        0.02552    0.32887    0.57492    1.000
    Si133    Si       0.02795    0.34798    0.53573    1.000
    N134     N        0.99832    0.33968    0.50397    1.000
    N135     N        0.02281    0.39056    0.54394    1.000
    N136     N        0.01477    0.48846    0.60311    1.000
    Si137    Si       0.03633    0.41111    0.58024    1.000
    Si138    Si       0.99839    0.49714    0.52915    1.000
    N139     N        0.99640    0.41760    0.59771    1.000
    Si140    Si       0.99270    0.41960    0.53005    1.000
    N141     N        0.03794    0.50635    0.54165    1.000
    Si142    Si       0.00914    0.26592    0.62005    1.000
    N143     N        0.04451    0.33785    0.65062    1.000
    N144     N        0.99652    0.30833    0.69065    1.000
    Si145    Si       0.04047    0.31287    0.68597    1.000
    Si146    Si       0.00728    0.50720    0.64188    1.000
    N147     N        0.03319    0.45093    0.72047    1.000
    N148     N        0.01789    0.40492    0.66916    1.000
    Si149    Si       0.02755    0.44604    0.67798    1.000
    Si150    Si       0.99713    0.46028    0.74217    1.000
    N151     N        0.99464    0.47269    0.66573    1.000
    N152     N        0.00261    0.29352    0.86314    1.000
    N153     N        0.03729    0.35686    0.86314    1.000
    Si154    Si       0.04061    0.31411    0.86164    1.000
    N155     N        0.01356    0.35431    0.75289    1.000
    N156     N        0.00792    0.26639    0.79772    1.000
    Si157    Si       0.00185    0.38627    0.78079    1.000
    Si158    Si       0.03243    0.39600    0.84630    1.000
    Si159    Si       0.02046    0.47147    0.85798    1.000
    N160     N        0.00497    0.42938    0.85555    1.000
    N161     N        0.03804    0.39224    0.80484    1.000
    N162     N        0.99811    0.49719    0.83087    1.000
    N163     N        0.00673    0.49973    0.75562    1.000
    N164     N        0.99073    0.43088    0.77220    1.000
    N165     N        0.03381    0.34440    0.94859    1.000
    Si166    Si       0.00109    0.27694    0.98511    1.000
    N167     N        0.03745    0.28047    0.96193    1.000
    Si168    Si       0.99201    0.34056    0.95238    1.000
    Si169    Si       0.04579    0.44612    0.97906    1.000
    N170     N        0.03230    0.48578    0.96303    1.000
    N171     N        0.01713    0.48463    0.89850    1.000
    N172     N        0.03338    0.41462    0.95067    1.000
    N173     N        0.99768    0.61868    0.10054    1.000
    Si174    Si       0.00982    0.59305    0.00100    1.000
    N175     N        0.04810    0.59489    0.02233    1.000
    Si176    Si       0.99253    0.63235    0.06158    1.000
    Si177    Si       0.03263    0.69606    0.04749    1.000
    N178     N        0.02792    0.65395    0.04914    1.000
    Si179    Si       0.00757    0.73587    0.10883    1.000
    N180     N        0.03948    0.72294    0.08216    1.000
    N181     N        0.99419    0.71060    0.03355    1.000
    Si182    Si       0.00983    0.58242    0.12440    1.000
    Si183    Si       0.00783    0.59355    0.19623    1.000
    N184     N        0.01241    0.51213    0.20258    1.000
    N185     N        0.99421    0.60390    0.15812    1.000
    N186     N        0.04728    0.57648    0.19260    1.000
    N187     N        0.00539    0.63277    0.21822    1.000
    N188     N        0.02129    0.71898    0.14524    1.000
    Si189    Si       0.03795    0.63733    0.24490    1.000
    N190     N        0.01034    0.54613    0.26785    1.000
    N191     N        0.02630    0.60936    0.27582    1.000
    Si192    Si       0.99711    0.60445    0.35641    1.000
    N193     N        0.03747    0.61568    0.34306    1.000
    Si194    Si       0.99032    0.58397    0.28161    1.000
    Si195    Si       0.03426    0.70172    0.35246    1.000
    N196     N        0.03848    0.67497    0.26503    1.000
    N197     N        0.03345    0.74167    0.36776    1.000
    N198     N        0.99400    0.69401    0.33778    1.000
    Si199    Si       0.01227    0.70577    0.25185    1.000
    N200     N        0.03994    0.73992    0.25059    1.000
    N201     N        0.02584    0.53218    0.42264    1.000
    N202     N        0.01541    0.59492    0.39635    1.000
    Si203    Si       0.99359    0.56221    0.41709    1.000
    N204     N        0.02599    0.62238    0.49403    1.000
    N205     N        0.99901    0.51488    0.48859    1.000
    Si206    Si       0.98717    0.61740    0.47605    1.000
    Si207    Si       0.03134    0.74484    0.41008    1.000
    N208     N        0.00346    0.72172    0.43212    1.000
    N209     N        0.02419    0.67349    0.38971    1.000
    Si210    Si       0.01312    0.67970    0.43405    1.000
    Si211    Si       0.00253    0.61882    0.58264    1.000
    Si212    Si       0.03611    0.59508    0.52488    1.000
    N213     N        0.99676    0.57393    0.52547    1.000
    N214     N        0.04200    0.61600    0.56307    1.000
    N215     N        0.98806    0.58053    0.59508    1.000
    Si216    Si       0.99535    0.73723    0.55517    1.000
    N217     N        0.03478    0.73501    0.53687    1.000
    Si218    Si       0.01789    0.69045    0.60580    1.000
    N219     N        0.00705    0.64723    0.61425    1.000
    N220     N        0.02369    0.56077    0.72357    1.000
    N221     N        0.02381    0.59078    0.65715    1.000
    Si222    Si       0.04188    0.56198    0.68359    1.000
    N223     N        0.04193    0.52274    0.66196    1.000
    Si224    Si       0.03481    0.63102    0.64572    1.000
    Si225    Si       0.99388    0.58889    0.74348    1.000
    Si226    Si       0.99623    0.75577    0.63304    1.000
    Si227    Si       0.04079    0.74460    0.73035    1.000
    N228     N        0.02902    0.65876    0.67582    1.000
    Si229    Si       0.01484    0.69983    0.67827    1.000
    N230     N        0.04660    0.70870    0.70783    1.000
    N231     N        0.01710    0.71719    0.63803    1.000
    N232     N        0.01478    0.57897    0.83671    1.000
    Si233    Si       0.99872    0.52122    0.79437    1.000
    N234     N        0.01444    0.62509    0.75839    1.000
    N235     N        0.04610    0.52946    0.79225    1.000
    N236     N        0.99063    0.56306    0.77967    1.000
    Si237    Si       0.03885    0.52951    0.74867    1.000
    N238     N        0.03111    0.68048    0.78403    1.000
    Si239    Si       0.99279    0.65549    0.77939    1.000
    Si240    Si       0.01406    0.59710    0.87512    1.000
    Si241    Si       0.02095    0.51733    0.99012    1.000
    N242     N        0.99723    0.62427    0.97364    1.000
    N243     N        0.01268    0.55927    0.97490    1.000
    N244     N        0.02356    0.56845    0.90575    1.000
    Si245    Si       0.99420    0.55651    0.93440    1.000
    N246     N        0.03670    0.63247    0.88275    1.000
    N247     N        0.99947    0.67295    0.92256    1.000
    Si248    Si       0.02227    0.65589    0.95664    1.000
    N249     N        0.02517    0.69312    0.97929    1.000
    Si250    Si       0.01605    0.66952    0.87980    1.000
    Si251    Si       0.01963    0.83866    0.04315    1.000
    N252     N        0.01838    0.81012    0.00932    1.000
    N253     N        0.99028    0.82880    0.07590    1.000
    N254     N        0.01727    0.77876    0.11318    1.000
    N255     N        0.00317    0.88014    0.04247    1.000
    Si256    Si       0.01106    0.91660    0.02073    1.000
    Si257    Si       0.00939    0.95954    0.08166    1.000
    N258     N        0.03240    0.94516    0.04730    1.000
    N259     N        0.02674    0.99611    0.09689    1.000
    N260     N        0.01419    0.92697    0.10890    1.000
    N261     N        0.00800    0.00263    0.02826    1.000
    N262     N        0.02014    0.85958    0.21415    1.000
    Si263    Si       0.00943    0.82616    0.18779    1.000
    Si264    Si       0.00031    0.00489    0.20068    1.000
    N265     N        0.04660    0.92970    0.21140    1.000
    N266     N        0.03258    0.99650    0.23033    1.000
    Si267    Si       0.02631    0.89813    0.19132    1.000
    N268     N        0.01873    0.81251    0.34770    1.000
    N269     N        0.01146    0.85299    0.28437    1.000
    Si270    Si       0.03936    0.77850    0.26920    1.000
    N271     N        0.99684    0.78925    0.27598    1.000
    Si272    Si       0.99797    0.81991    0.30927    1.000
    Si273    Si       0.04084    0.85012    0.36067    1.000
    Si274    Si       0.04042    0.85164    0.25128    1.000
    Si275    Si       0.04686    0.77710    0.34748    1.000
    N276     N        0.03145    0.88683    0.33717    1.000
    Si277    Si       0.03727    0.98946    0.34189    1.000
    N278     N        0.01727    0.93170    0.27538    1.000
    Si279    Si       0.02634    0.89324    0.29536    1.000
    N280     N        0.03667    0.95002    0.36239    1.000
    N281     N        0.99107    0.99364    0.35093    1.000
    N282     N        0.02715    0.00182    0.29933    1.000
    Si283    Si       0.04275    0.95565    0.24865    1.000
    N284     N        0.01641    0.78589    0.41665    1.000
    N285     N        0.00410    0.83455    0.46730    1.000
    Si286    Si       0.00809    0.79219    0.45919    1.000
    N287     N        0.02286    0.84998    0.40083    1.000
    Si288    Si       0.99989    0.81400    0.38862    1.000
    Si289    Si       0.02446    0.86388    0.44076    1.000
    N290     N        0.04568    0.77610    0.47700    1.000
    N291     N        0.99040    0.89143    0.44461    1.000
    Si292    Si       0.99338    0.98397    0.45813    1.000
    N293     N        0.00847    0.98481    0.41720    1.000
    Si294    Si       0.00036    0.96047    0.38304    1.000
    N295     N        0.02162    0.96775    0.48808    1.000
    N296     N        0.00690    0.79117    0.53290    1.000
    Si297    Si       0.01058    0.80110    0.57590    1.000
    Si298    Si       0.03841    0.86633    0.59221    1.000
    Si299    Si       0.04377    0.77379    0.52035    1.000
    N300     N        0.99870    0.76175    0.58999    1.000
    N301     N        0.04611    0.82716    0.57317    1.000
    N302     N        0.98883    0.82573    0.60804    1.000
    N303     N        0.01173    0.88236    0.51206    1.000
    Si304    Si       0.00234    0.97040    0.52725    1.000
    N305     N        0.00821    0.89650    0.58669    1.000
    N306     N        0.03529    0.96164    0.55553    1.000
    Si307    Si       0.98892    0.89648    0.54663    1.000
    Si308    Si       0.00860    0.82864    0.64955    1.000
    N309     N        0.02479    0.78656    0.64766    1.000
    Si310    Si       0.01957    0.84801    0.72479    1.000
    N311     N        0.03644    0.83355    0.68837    1.000
    N312     N        0.04108    0.86038    0.63473    1.000
    N313     N        0.00132    0.75545    0.71306    1.000
    Si314    Si       0.99955    0.92182    0.62298    1.000
    N315     N        0.00354    0.88888    0.72686    1.000
    Si316    Si       0.03464    0.97793    0.66696    1.000
    N317     N        0.03145    0.95161    0.63345    1.000
    N318     N        0.02475    0.95533    0.70178    1.000
    Si319    Si       0.00643    0.97438    0.73964    1.000
    Si320    Si       0.99871    0.92301    0.70050    1.000
    Si321    Si       0.03411    0.79288    0.80643    1.000
    Si322    Si       0.02934    0.85491    0.85568    1.000
    N323     N        0.03564    0.83518    0.81789    1.000
    Si324    Si       0.03670    0.86497    0.78654    1.000
    N325     N        0.99596    0.78186    0.82570    1.000
    N326     N        0.03855    0.76206    0.77184    1.000
    N327     N        0.99814    0.88701    0.86031    1.000
    N328     N        0.99767    0.81820    0.74802    1.000
    N329     N        0.99822    0.88504    0.79146    1.000
    N330     N        0.02944    0.94527    0.84329    1.000
    N331     N        0.01680    0.94125    0.76809    1.000
    Si332    Si       0.04163    0.93370    0.80214    1.000
    N333     N        0.00130    0.82419    0.87719    1.000
    Si334    Si       0.01945    0.82296    0.91574    1.000
    N335     N        0.01133    0.86363    0.93008    1.000
    N336     N        0.99432    0.79850    0.94152    1.000
    Si337    Si       0.04643    0.88740    0.91868    1.000
    N338     N        0.02699    0.92662    0.91460    1.000
    Si339    Si       0.00886    0.93962    0.95058    1.000
    Si340    Si       0.00689    0.92738    0.87377    1.000
    Si341    Si       0.02614    0.99944    0.99022    1.000
    N342     N        0.03124    0.91752    0.98148    1.000
    N343     N        0.00199    0.98125    0.95921    1.000
    N344     N        0.09130    0.08320    0.08006    1.000
    N345     N        0.08655    0.05104    0.02159    1.000
    Si346    Si       0.09301    0.12508    0.10965    1.000
    Si347    Si       0.09617    0.06028    0.11791    1.000
    N348     N        0.05040    0.12930    0.09082    1.000
    N349     N        0.10302    0.19255    0.02990    1.000
    N350     N        0.05104    0.19803    0.11743    1.000
    Si351    Si       0.06352    0.20487    0.03035    1.000
    N352     N        0.06272    0.23696    0.06137    1.000
    N353     N        0.05982    0.23344    0.99888    1.000
    Si354    Si       0.05171    0.23846    0.10260    1.000
    N355     N        0.08893    0.01700    0.12924    1.000
    Si356    Si       0.06964    0.01637    0.21330    1.000
    Si357    Si       0.05814    0.08683    0.22877    1.000
    N358     N        0.06458    0.05814    0.19750    1.000
    N359     N        0.05067    0.07151    0.12552    1.000
    N360     N        0.08768    0.14904    0.14648    1.000
    Si361    Si       0.07172    0.18856    0.15692    1.000
    N362     N        0.10294    0.15632    0.21303    1.000
    Si363    Si       0.06143    0.16175    0.22432    1.000
    N364     N        0.10676    0.21302    0.17205    1.000
    N365     N        0.06700    0.05698    0.30443    1.000
    Si366    Si       0.08208    0.09811    0.29556    1.000
    Si367    Si       0.07735    0.03529    0.34087    1.000
    N368     N        0.08608    0.01775    0.25482    1.000
    N369     N        0.08974    0.10388    0.25298    1.000
    N370     N        0.05408    0.12368    0.31764    1.000
    N371     N        0.10348    0.06410    0.35865    1.000
    Si372    Si       0.04937    0.03045    0.27496    1.000
    N373     N        0.06960    0.19888    0.34012    1.000
    Si374    Si       0.07906    0.15721    0.33350    1.000
    N375     N        0.05644    0.18503    0.26023    1.000
    Si376    Si       0.09586    0.20069    0.27949    1.000
    N377     N        0.05603    0.25503    0.26308    1.000
    Si378    Si       0.08719    0.09768    0.38408    1.000
    N379     N        0.06530    0.10408    0.45791    1.000
    N380     N        0.06816    0.03221    0.43502    1.000
    Si381    Si       0.09062    0.06948    0.44838    1.000
    N382     N        0.09507    0.13878    0.36958    1.000
    N383     N        0.06445    0.22520    0.42255    1.000
    Si384    Si       0.05016    0.18814    0.44405    1.000
    Si385    Si       0.08959    0.13683    0.47338    1.000
    N386     N        0.08672    0.16488    0.44111    1.000
    N387     N        0.08556    0.06352    0.59553    1.000
    N388     N        0.08004    0.04567    0.52936    1.000
    Si389    Si       0.05993    0.06685    0.56055    1.000
    N390     N        0.05396    0.11029    0.55781    1.000
    Si391    Si       0.10310    0.10398    0.60450    1.000
    N392     N        0.05325    0.00861    0.61179    1.000
    N393     N        0.07421    0.15500    0.51119    1.000
    N394     N        0.06664    0.17781    0.58575    1.000
    Si395    Si       0.07919    0.14741    0.55643    1.000
    Si396    Si       0.08992    0.24801    0.53578    1.000
    N397     N        0.05280    0.22830    0.54187    1.000
    Si398    Si       0.08622    0.03409    0.62834    1.000
    N399     N        0.07209    0.11713    0.63338    1.000
    N400     N        0.07420    0.05888    0.66228    1.000
    Si401    Si       0.08963    0.07126    0.70409    1.000
    N402     N        0.05451    0.08153    0.73123    1.000
    N403     N        0.10091    0.03324    0.71862    1.000
    Si404    Si       0.09462    0.13360    0.66650    1.000
    Si405    Si       0.09147    0.18773    0.61888    1.000
    N406     N        0.05971    0.21081    0.72245    1.000
    N407     N        0.06488    0.20915    0.64731    1.000
    Si408    Si       0.07274    0.25281    0.65276    1.000
    N409     N        0.06643    0.15326    0.69184    1.000
    Si410    Si       0.08948    0.17836    0.73141    1.000
    Si411    Si       0.07035    0.07149    0.77550    1.000
    N412     N        0.08914    0.04178    0.80442    1.000
    N413     N        0.05534    0.10861    0.80327    1.000
    Si414    Si       0.07892    0.12852    0.83601    1.000
    N415     N        0.07187    0.22861    0.80114    1.000
    N416     N        0.06800    0.17167    0.84334    1.000
    N417     N        0.06932    0.14460    0.75322    1.000
    N418     N        0.07367    0.12096    0.87978    1.000
    Si419    Si       0.08046    0.09309    0.91505    1.000
    N420     N        0.09759    0.05634    0.90391    1.000
    Si421    Si       0.08135    0.12565    0.98262    1.000
    Si422    Si       0.07529    0.01717    0.90065    1.000
    N423     N        0.10292    0.10274    0.95253    1.000
    Si424    Si       0.05664    0.24085    0.95774    1.000
    N425     N        0.10008    0.18694    0.90135    1.000
    N426     N        0.07442    0.16066    0.95911    1.000
    Si427    Si       0.06835    0.16339    0.88593    1.000
    N428     N        0.09244    0.25520    0.93688    1.000
    N429     N        0.06912    0.34003    0.10896    1.000
    N430     N        0.08043    0.30178    0.04293    1.000
    Si431    Si       0.05754    0.32759    0.06865    1.000
    Si432    Si       0.05809    0.26610    0.02888    1.000
    Si433    Si       0.06813    0.39352    0.02639    1.000
    N434     N        0.09955    0.47619    0.05157    1.000
    Si435    Si       0.10074    0.48202    0.09610    1.000
    Si436    Si       0.06136    0.49816    0.05091    1.000
    Si437    Si       0.07391    0.41671    0.11771    1.000
    N438     N        0.04903    0.43555    0.08687    1.000
    N439     N        0.10749    0.40957    0.04023    1.000
    N440     N        0.06515    0.50766    0.09456    1.000
    Si441    Si       0.09232    0.35764    0.20737    1.000
    N442     N        0.08130    0.27668    0.20113    1.000
    N443     N        0.05332    0.34121    0.22044    1.000
    Si444    Si       0.10507    0.35573    0.12801    1.000
    N445     N        0.07681    0.25969    0.13128    1.000
    Si446    Si       0.10119    0.25561    0.16519    1.000
    Si447    Si       0.09126    0.25831    0.23924    1.000
    N448     N        0.05203    0.39196    0.14477    1.000
    Si449    Si       0.10561    0.49950    0.23799    1.000
    N450     N        0.08559    0.40133    0.20253    1.000
    N451     N        0.08259    0.45851    0.12965    1.000
    Si452    Si       0.04706    0.41024    0.18410    1.000
    Si453    Si       0.08146    0.47480    0.17132    1.000
    N454     N        0.06801    0.32191    0.29372    1.000
    Si455    Si       0.08119    0.28860    0.36051    1.000
    N456     N        0.05464    0.26769    0.33027    1.000
    N457     N        0.05995    0.37968    0.34009    1.000
    Si458    Si       0.08782    0.36478    0.36992    1.000
    N459     N        0.10581    0.32783    0.35957    1.000
    Si460    Si       0.10736    0.32385    0.27378    1.000
    N461     N        0.09036    0.44428    0.33185    1.000
    Si462    Si       0.08838    0.48433    0.31455    1.000
    Si463    Si       0.05417    0.42324    0.34592    1.000
    N464     N        0.10810    0.47702    0.27791    1.000
    Si465    Si       0.05980    0.30342    0.48703    1.000
    Si466    Si       0.05969    0.32028    0.42216    1.000
    N467     N        0.05325    0.28746    0.39521    1.000
    N468     N        0.05931    0.35729    0.40206    1.000
    N469     N        0.09290    0.31499    0.44942    1.000
    N470     N        0.07129    0.42184    0.46350    1.000
    N471     N        0.09694    0.51044    0.41380    1.000
    N472     N        0.06575    0.33511    0.51590    1.000
    N473     N        0.08903    0.33028    0.59121    1.000
    Si474    Si       0.09544    0.37239    0.59155    1.000
    N475     N        0.09216    0.27313    0.50131    1.000
    Si476    Si       0.10498    0.35706    0.52260    1.000
    Si477    Si       0.05136    0.32093    0.61088    1.000
    N478     N        0.09622    0.38760    0.55166    1.000
    N479     N        0.05960    0.38781    0.60952    1.000
    N480     N        0.06094    0.44577    0.56982    1.000
    Si481    Si       0.09894    0.43066    0.55406    1.000
    N482     N        0.08105    0.50355    0.60633    1.000
    Si483    Si       0.05189    0.48670    0.57937    1.000
    N484     N        0.05123    0.27823    0.62060    1.000
    Si485    Si       0.08989    0.30418    0.74024    1.000
    N486     N        0.06984    0.33307    0.71444    1.000
    N487     N        0.05221    0.27166    0.68890    1.000
    Si488    Si       0.10334    0.35571    0.69479    1.000
    Si489    Si       0.05129    0.38066    0.65270    1.000
    N490     N        0.06938    0.45865    0.66224    1.000
    N491     N        0.08321    0.39121    0.67939    1.000
    Si492    Si       0.07612    0.50109    0.64688    1.000
    Si493    Si       0.10051    0.43244    0.68125    1.000
    Si494    Si       0.06994    0.46683    0.73552    1.000
    N495     N        0.08941    0.33459    0.77396    1.000
    N496     N        0.06105    0.29941    0.82684    1.000
    Si497    Si       0.09725    0.32507    0.81530    1.000
    N498     N        0.06187    0.27501    0.75312    1.000
    Si499    Si       0.05110    0.26875    0.79653    1.000
    N500     N        0.10314    0.35553    0.84704    1.000
    Si501    Si       0.05766    0.35334    0.75100    1.000
    N502     N        0.06244    0.47541    0.84452    1.000
    N503     N        0.06533    0.46089    0.77830    1.000
    Si504    Si       0.06905    0.41829    0.78822    1.000
    Si505    Si       0.07168    0.49290    0.80653    1.000
    N506     N        0.07605    0.39186    0.75445    1.000
    Si507    Si       0.07739    0.36899    0.87730    1.000
    Si508    Si       0.06046    0.30988    0.94029    1.000
    N509     N        0.06370    0.30282    0.89738    1.000
    Si510    Si       0.09631    0.27422    0.89743    1.000
    N511     N        0.07810    0.37359    0.98870    1.000
    N512     N        0.08712    0.37932    0.91878    1.000
    N513     N        0.10169    0.31587    0.95691    1.000
    Si514    Si       0.05741    0.37932    0.95169    1.000
    N515     N        0.06812    0.41225    0.86628    1.000
    Si516    Si       0.08526    0.45171    0.87210    1.000
    Si517    Si       0.05224    0.49424    0.92402    1.000
    N518     N        0.08409    0.46689    0.91214    1.000
    N519     N        0.08873    0.45215    0.98118    1.000
    N520     N        0.08475    0.61895    0.07791    1.000
    Si521    Si       0.07514    0.56200    0.01999    1.000
    Si522    Si       0.08463    0.54705    0.09769    1.000
    N523     N        0.09785    0.55237    0.05560    1.000
    Si524    Si       0.06393    0.62851    0.04278    1.000
    N525     N        0.05476    0.52321    0.01601    1.000
    Si526    Si       0.08616    0.60581    0.11947    1.000
    N527     N        0.05205    0.57557    0.11548    1.000
    Si528    Si       0.07536    0.73977    0.06193    1.000
    N529     N        0.09406    0.64320    0.01394    1.000
    N530     N        0.06900    0.71022    0.02876    1.000
    N531     N        0.07993    0.51728    0.17077    1.000
    Si532    Si       0.08116    0.60478    0.19187    1.000
    N533     N        0.08647    0.62780    0.15607    1.000
    Si534    Si       0.05054    0.53248    0.20146    1.000
    N535     N        0.07003    0.52363    0.23962    1.000
    N536     N        0.07859    0.75456    0.15070    1.000
    N537     N        0.07575    0.63577    0.22205    1.000
    N538     N        0.09101    0.69081    0.13106    1.000
    N539     N        0.07054    0.70487    0.19309    1.000
    Si540    Si       0.09467    0.67152    0.21051    1.000
    Si541    Si       0.07563    0.73050    0.22913    1.000
    Si542    Si       0.06303    0.71502    0.15219    1.000
    N543     N        0.07171    0.56299    0.30393    1.000
    Si544    Si       0.09546    0.55229    0.33822    1.000
    Si545    Si       0.05764    0.60552    0.30584    1.000
    Si546    Si       0.05156    0.53525    0.27781    1.000
    N547     N        0.09322    0.62782    0.29677    1.000
    N548     N        0.10619    0.51106    0.34348    1.000
    Si549    Si       0.08263    0.67290    0.28443    1.000
    N550     N        0.06644    0.68875    0.32376    1.000
    Si551    Si       0.10663    0.68983    0.34339    1.000
    N552     N        0.09793    0.69695    0.24854    1.000
    N553     N        0.07030    0.56082    0.37303    1.000
    Si554    Si       0.05488    0.59904    0.37873    1.000
    Si555    Si       0.05898    0.52375    0.39313    1.000
    N556     N        0.09705    0.62167    0.47785    1.000
    N557     N        0.08214    0.62802    0.39543    1.000
    N558     N        0.06794    0.51036    0.47381    1.000
    Si559    Si       0.10690    0.51569    0.45618    1.000
    N560     N        0.05324    0.66850    0.44776    1.000
    Si561    Si       0.06241    0.64710    0.48394    1.000
    Si562    Si       0.06468    0.66663    0.40475    1.000
    N563     N        0.08754    0.69802    0.38314    1.000
    Si564    Si       0.09767    0.74334    0.38679    1.000
    N565     N        0.07367    0.74632    0.42268    1.000
    Si566    Si       0.06638    0.52498    0.51487    1.000
    N567     N        0.06812    0.56868    0.50971    1.000
    Si568    Si       0.06863    0.64262    0.58237    1.000
    Si569    Si       0.06566    0.70709    0.54716    1.000
    N570     N        0.07227    0.67505    0.51521    1.000
    N571     N        0.05438    0.68331    0.58228    1.000
    N572     N        0.10837    0.71667    0.54503    1.000
    N573     N        0.08123    0.57277    0.69849    1.000
    Si574    Si       0.10168    0.60878    0.71433    1.000
    Si575    Si       0.10175    0.53404    0.70628    1.000
    N576     N        0.07157    0.51021    0.72707    1.000
    N577     N        0.07434    0.63376    0.62606    1.000
    N578     N        0.07400    0.64174    0.72405    1.000
    Si579    Si       0.06655    0.67314    0.69477    1.000
    N580     N        0.09963    0.68200    0.66881    1.000
    N581     N        0.08794    0.58314    0.81074    1.000
    N582     N        0.06993    0.54547    0.85769    1.000
    Si583    Si       0.04957    0.56151    0.82093    1.000
    Si584    Si       0.10696    0.55049    0.83120    1.000
    Si585    Si       0.07805    0.75171    0.78775    1.000
    Si586    Si       0.05944    0.68423    0.81540    1.000
    N587     N        0.08319    0.64801    0.79447    1.000
    N588     N        0.08822    0.71698    0.80891    1.000
    Si589    Si       0.05286    0.64503    0.76273    1.000
    N590     N        0.05176    0.69015    0.85765    1.000
    Si591    Si       0.09368    0.61809    0.97687    1.000
    N592     N        0.09140    0.59513    0.90700    1.000
    N593     N        0.07506    0.53268    0.92878    1.000
    Si594    Si       0.06447    0.56131    0.89730    1.000
    N595     N        0.09687    0.57584    0.98494    1.000
    N596     N        0.05927    0.63405    0.95504    1.000
    Si597    Si       0.06878    0.63162    0.91027    1.000
    N598     N        0.09071    0.66902    0.90907    1.000
    Si599    Si       0.06011    0.71788    0.98504    1.000
    N600     N        0.06474    0.73552    0.90473    1.000
    Si601    Si       0.08498    0.70254    0.88414    1.000
    N602     N        0.09789    0.70191    0.97273    1.000
    N603     N        0.05524    0.75840    0.97309    1.000
    Si604    Si       0.08545    0.81297    0.06794    1.000
    N605     N        0.08149    0.80766    0.10895    1.000
    N606     N        0.06179    0.84707    0.05346    1.000
    N607     N        0.06787    0.77818    0.04437    1.000
    Si608    Si       0.05699    0.79017    0.00494    1.000
    Si609    Si       0.08406    0.88540    0.05737    1.000
    N610     N        0.08356    0.91133    0.02387    1.000
    Si611    Si       0.07396    0.95394    0.03376    1.000
    N612     N        0.08459    0.90982    0.09586    1.000
    N613     N        0.06728    0.98425    0.99948    1.000
    N614     N        0.10703    0.97871    0.04983    1.000
    Si615    Si       0.09741    0.00991    0.02083    1.000
    Si616    Si       0.07443    0.85482    0.16700    1.000
    N617     N        0.08939    0.85157    0.20780    1.000
    Si618    Si       0.09398    0.80788    0.22576    1.000
    N619     N        0.09577    0.76608    0.21678    1.000
    Si620    Si       0.05376    0.78821    0.13550    1.000
    N621     N        0.04799    0.81855    0.16620    1.000
    Si622    Si       0.05126    0.99627    0.13502    1.000
    Si623    Si       0.07731    0.94648    0.18416    1.000
    Si624    Si       0.05272    0.92007    0.12456    1.000
    N625     N        0.09334    0.98347    0.20074    1.000
    N626     N        0.06164    0.95555    0.14564    1.000
    N627     N        0.05225    0.89186    0.15624    1.000
    N628     N        0.08251    0.84825    0.35484    1.000
    N629     N        0.06030    0.76983    0.30862    1.000
    N630     N        0.05713    0.81282    0.25022    1.000
    N631     N        0.08635    0.78296    0.36863    1.000
    Si632    Si       0.10361    0.76383    0.31741    1.000
    N633     N        0.06333    0.88385    0.27018    1.000
    Si634    Si       0.09347    0.91165    0.28283    1.000
    Si635    Si       0.05780    0.91359    0.35771    1.000
    N636     N        0.08354    0.95162    0.26384    1.000
    N637     N        0.08187    0.99317    0.33701    1.000
    N638     N        0.08733    0.92248    0.32514    1.000
    Si639    Si       0.08489    0.76983    0.45837    1.000
    Si640    Si       0.09569    0.84726    0.46927    1.000
    N641     N        0.10087    0.80860    0.45025    1.000
    N642     N        0.06314    0.87818    0.45812    1.000
    N643     N        0.09325    0.99118    0.49037    1.000
    N644     N        0.07013    0.95770    0.44277    1.000
    N645     N        0.07978    0.90793    0.39586    1.000
    Si646    Si       0.06412    0.96002    0.48693    1.000
    Si647    Si       0.09094    0.99707    0.44453    1.000
    Si648    Si       0.07707    0.91535    0.43757    1.000
    N649     N        0.08357    0.78203    0.53782    1.000
    Si650    Si       0.08176    0.82571    0.54682    1.000
    N651     N        0.08098    0.84966    0.51121    1.000
    Si652    Si       0.05529    0.88386    0.50242    1.000
    N653     N        0.07227    0.88912    0.57394    1.000
    N654     N        0.09094    0.95312    0.58518    1.000
    N655     N        0.07192    0.92348    0.50946    1.000
    Si656    Si       0.07042    0.92997    0.55217    1.000
    Si657    Si       0.05239    0.96802    0.59556    1.000
    N658     N        0.06507    0.77348    0.71106    1.000
    Si659    Si       0.09180    0.85270    0.73207    1.000
    N660     N        0.09117    0.87698    0.69521    1.000
    Si661    Si       0.07578    0.85122    0.66023    1.000
    N662     N        0.08961    0.80798    0.65678    1.000
    Si663    Si       0.05371    0.79440    0.67728    1.000
    N664     N        0.10580    0.87195    0.63516    1.000
    Si665    Si       0.07319    0.99735    0.71947    1.000
    N666     N        0.07506    0.98794    0.67764    1.000
    N667     N        0.07517    0.78310    0.81704    1.000
    N668     N        0.05427    0.85075    0.75008    1.000
    N669     N        0.06902    0.96710    0.80008    1.000
    N670     N        0.06320    0.89714    0.79805    1.000
    N671     N        0.08499    0.00653    0.85903    1.000
    Si672    Si       0.05225    0.98414    0.83859    1.000
    Si673    Si       0.10473    0.88864    0.79807    1.000
    N674     N        0.10555    0.97612    0.74391    1.000
    Si675    Si       0.10270    0.85762    0.87271    1.000
    Si676    Si       0.06901    0.76703    0.93199    1.000
    Si677    Si       0.08854    0.83504    0.95145    1.000
    N678     N        0.06026    0.86732    0.88234    1.000
    N679     N        0.06053    0.81052    0.92860    1.000
    N680     N        0.07344    0.87543    0.95220    1.000
    N681     N        0.09034    0.81530    0.99098    1.000
    Si682    Si       0.07446    0.90703    0.97985    1.000
    N683     N        0.10375    0.93625    0.96770    1.000
    Si684    Si       0.09694    0.97811    0.96451    1.000
    N685     N        0.09469    0.98809    0.92330    1.000
    N686     N        0.15313    0.07613    0.04134    1.000
    N687     N        0.14197    0.04381    0.11122    1.000
    Si688    Si       0.11144    0.08331    0.04049    1.000
    N689     N        0.10509    0.12179    0.02088    1.000
    N690     N        0.16057    0.16009    0.01764    1.000
    Si691    Si       0.12940    0.22043    0.00904    1.000
    Si692    Si       0.12203    0.15490    0.04133    1.000
    N693     N        0.12150    0.14802    0.08422    1.000
    Si694    Si       0.15997    0.14971    0.10726    1.000
    N695     N        0.16440    0.22330    0.03488    1.000
    Si696    Si       0.15975    0.07885    0.12919    1.000
    Si697    Si       0.12301    0.12308    0.23502    1.000
    N698     N        0.11822    0.09612    0.13501    1.000
    N699     N        0.13880    0.10571    0.19918    1.000
    Si700    Si       0.12137    0.12950    0.16634    1.000
    Si701    Si       0.13095    0.00427    0.12983    1.000
    N702     N        0.15519    0.15638    0.15103    1.000
    N703     N        0.11017    0.21951    0.24134    1.000
    Si704    Si       0.12397    0.19557    0.20685    1.000
    N705     N        0.12240    0.10108    0.30903    1.000
    Si706    Si       0.13804    0.06840    0.33215    1.000
    N707     N        0.15447    0.03976    0.30551    1.000
    N708     N        0.15527    0.01460    0.36558    1.000
    N709     N        0.15636    0.13548    0.26093    1.000
    Si710    Si       0.14053    0.13913    0.29985    1.000
    N711     N        0.11628    0.23052    0.30620    1.000
    Si712    Si       0.10821    0.21893    0.34680    1.000
    N713     N        0.10735    0.16488    0.30024    1.000
    Si714    Si       0.15438    0.03066    0.44795    1.000
    N715     N        0.12815    0.05232    0.47502    1.000
    Si716    Si       0.15286    0.09657    0.39918    1.000
    N717     N        0.12991    0.12471    0.48171    1.000
    Si718    Si       0.14836    0.08703    0.49197    1.000
    N719     N        0.11362    0.08762    0.41772    1.000
    N720     N        0.12672    0.24688    0.44636    1.000
    N721     N        0.12474    0.19973    0.38576    1.000
    Si722    Si       0.16376    0.22912    0.45691    1.000
    N723     N        0.15391    0.19055    0.47608    1.000
    N724     N        0.15315    0.13964    0.40733    1.000
    Si725    Si       0.11264    0.15970    0.40340    1.000
    Si726    Si       0.10659    0.23177    0.41328    1.000
    N727     N        0.14958    0.01564    0.52681    1.000
    Si728    Si       0.15705    0.12087    0.55681    1.000
    N729     N        0.15404    0.08351    0.53512    1.000
    Si730    Si       0.11066    0.02642    0.50745    1.000
    N731     N        0.11663    0.12945    0.57180    1.000
    Si732    Si       0.14961    0.18958    0.51961    1.000
    Si733    Si       0.14144    0.23096    0.56979    1.000
    N734     N        0.11812    0.21202    0.53611    1.000
    N735     N        0.12256    0.21218    0.60472    1.000
    N736     N        0.13793    0.09386    0.62776    1.000
    Si737    Si       0.15479    0.11565    0.71048    1.000
    N738     N        0.11477    0.10702    0.69536    1.000
    Si739    Si       0.14555    0.23570    0.63274    1.000
    Si740    Si       0.14949    0.17647    0.67106    1.000
    N741     N        0.11614    0.16265    0.64566    1.000
    N742     N        0.12881    0.17996    0.70828    1.000
    Si743    Si       0.15252    0.17819    0.74377    1.000
    N744     N        0.14555    0.05349    0.84997    1.000
    Si745    Si       0.14860    0.06873    0.76084    1.000
    N746     N        0.15700    0.02620    0.75618    1.000
    Si747    Si       0.11604    0.02249    0.83154    1.000
    N748     N        0.10976    0.08661    0.76153    1.000
    Si749    Si       0.10860    0.12926    0.76969    1.000
    N750     N        0.11609    0.13284    0.81355    1.000
    N751     N        0.15234    0.13309    0.75224    1.000
    Si752    Si       0.14664    0.15914    0.82800    1.000
    N753     N        0.14560    0.23998    0.78135    1.000
    N754     N        0.13881    0.20228    0.83054    1.000
    N755     N        0.11641    0.18225    0.76781    1.000
    Si756    Si       0.11161    0.21522    0.79525    1.000
    N757     N        0.11543    0.24627    0.87081    1.000
    Si758    Si       0.14547    0.10699    0.94563    1.000
    Si759    Si       0.13920    0.04891    0.89319    1.000
    N760     N        0.15863    0.08495    0.91160    1.000
    N761     N        0.15068    0.15547    0.87121    1.000
    N762     N        0.12930    0.20759    0.96812    1.000
    N763     N        0.16249    0.20872    0.90665    1.000
    Si764    Si       0.12991    0.20441    0.87478    1.000
    Si765    Si       0.11341    0.17811    0.94168    1.000
    N766     N        0.14815    0.15187    0.94184    1.000
    Si767    Si       0.12201    0.29656    0.03106    1.000
    N768     N        0.15472    0.29142    0.05932    1.000
    N769     N        0.13932    0.33159    0.00723    1.000
    N770     N        0.15599    0.36589    0.06327    1.000
    N771     N        0.12129    0.26426    0.00299    1.000
    Si772    Si       0.16120    0.32854    0.08409    1.000
    N773     N        0.13784    0.32820    0.11871    1.000
    Si774    Si       0.13370    0.40154    0.07220    1.000
    N775     N        0.10965    0.39445    0.10861    1.000
    N776     N        0.14936    0.45588    0.00080    1.000
    Si777    Si       0.11134    0.44989    0.01952    1.000
    N778     N        0.16552    0.43451    0.07513    1.000
    N779     N        0.12128    0.34601    0.23956    1.000
    Si780    Si       0.14477    0.32066    0.16129    1.000
    N781     N        0.14171    0.27734    0.16888    1.000
    N782     N        0.10735    0.34396    0.17039    1.000
    N783     N        0.14795    0.46574    0.13874    1.000
    N784     N        0.15502    0.41576    0.19741    1.000
    Si785    Si       0.11784    0.42458    0.21751    1.000
    Si786    Si       0.15730    0.50758    0.12893    1.000
    N787     N        0.10686    0.46687    0.20767    1.000
    N788     N        0.13409    0.35066    0.29906    1.000
    N789     N        0.11848    0.28461    0.26151    1.000
    Si790    Si       0.15158    0.26816    0.35881    1.000
    N791     N        0.14934    0.28903    0.32091    1.000
    Si792    Si       0.14245    0.33157    0.33573    1.000
    Si793    Si       0.14450    0.37461    0.26473    1.000
    Si794    Si       0.14190    0.26040    0.28937    1.000
    N795     N        0.15512    0.42836    0.31796    1.000
    N796     N        0.12704    0.41261    0.25830    1.000
    Si797    Si       0.12762    0.43118    0.34954    1.000
    Si798    Si       0.13677    0.44584    0.28337    1.000
    N799     N        0.11194    0.25641    0.37185    1.000
    N800     N        0.14977    0.35871    0.42236    1.000
    Si801    Si       0.12873    0.34210    0.45694    1.000
    N802     N        0.15096    0.30882    0.47076    1.000
    Si803    Si       0.11739    0.28215    0.46926    1.000
    N804     N        0.11640    0.37308    0.48442    1.000
    N805     N        0.11896    0.39613    0.37435    1.000
    Si806    Si       0.12490    0.50257    0.38086    1.000
    N807     N        0.14177    0.46129    0.37494    1.000
    Si808    Si       0.14277    0.39947    0.41060    1.000
    Si809    Si       0.11165    0.41721    0.47859    1.000
    N810     N        0.14055    0.42568    0.44707    1.000
    N811     N        0.13931    0.48970    0.47321    1.000
    N812     N        0.13680    0.33277    0.53856    1.000
    Si813    Si       0.12221    0.30922    0.57286    1.000
    N814     N        0.15437    0.31337    0.60223    1.000
    N815     N        0.11674    0.26834    0.56360    1.000
    N816     N        0.12981    0.37914    0.61828    1.000
    Si817    Si       0.13133    0.48172    0.51622    1.000
    N818     N        0.12779    0.44010    0.58463    1.000
    N819     N        0.11631    0.44063    0.51426    1.000
    Si820    Si       0.14459    0.41938    0.61950    1.000
    N821     N        0.13060    0.36403    0.72679    1.000
    Si822    Si       0.13704    0.29005    0.68182    1.000
    N823     N        0.12836    0.28985    0.72574    1.000
    N824     N        0.12564    0.32993    0.66770    1.000
    Si825    Si       0.14780    0.34196    0.63377    1.000
    N826     N        0.11620    0.26081    0.65532    1.000
    N827     N        0.13885    0.43827    0.65959    1.000
    N828     N        0.10666    0.44776    0.72311    1.000
    Si829    Si       0.14567    0.44624    0.74613    1.000
    N830     N        0.12960    0.29734    0.81950    1.000
    N831     N        0.14527    0.35670    0.79819    1.000
    Si832    Si       0.14177    0.27849    0.85611    1.000
    Si833    Si       0.14370    0.37185    0.84343    1.000
    Si834    Si       0.15614    0.26849    0.75128    1.000
    Si835    Si       0.11842    0.37970    0.76856    1.000
    Si836    Si       0.16594    0.31967    0.80864    1.000
    N837     N        0.12826    0.45032    0.85902    1.000
    Si838    Si       0.14163    0.43649    0.82055    1.000
    N839     N        0.14798    0.46628    0.78727    1.000
    N840     N        0.11045    0.41285    0.80236    1.000
    N841     N        0.16144    0.40647    0.75796    1.000
    Si842    Si       0.15150    0.50842    0.79803    1.000
    N843     N        0.13031    0.30096    0.89166    1.000
    Si844    Si       0.11403    0.35075    0.97899    1.000
    N845     N        0.14627    0.37778    0.88794    1.000
    Si846    Si       0.12195    0.27641    0.96187    1.000
    Si847    Si       0.15960    0.33429    0.89458    1.000
    Si848    Si       0.15054    0.45814    0.89583    1.000
    N849     N        0.14208    0.37896    0.96189    1.000
    Si850    Si       0.11073    0.46836    0.94784    1.000
    N851     N        0.12543    0.50723    0.96398    1.000
    N852     N        0.15202    0.50094    0.90185    1.000
    Si853    Si       0.15672    0.49753    0.99304    1.000
    N854     N        0.13905    0.43597    0.93367    1.000
    Si855    Si       0.12826    0.39358    0.92341    1.000
    Si856    Si       0.13888    0.53755    0.06086    1.000
    N857     N        0.15723    0.62782    0.04736    1.000
    N858     N        0.16145    0.51807    0.02843    1.000
    N859     N        0.16277    0.56847    0.07956    1.000
    N860     N        0.13562    0.62651    0.11693    1.000
    Si861    Si       0.15174    0.58622    0.11829    1.000
    N862     N        0.12974    0.51248    0.09625    1.000
    Si863    Si       0.12549    0.63971    0.07508    1.000
    N864     N        0.14865    0.69329    0.01316    1.000
    Si865    Si       0.11947    0.70518    0.10158    1.000
    N866     N        0.11660    0.67998    0.06732    1.000
    N867     N        0.11289    0.74226    0.08238    1.000
    Si868    Si       0.10658    0.68547    0.02182    1.000
    N869     N        0.13784    0.75764    0.99983    1.000
    N870     N        0.15406    0.68792    0.12468    1.000
    N871     N        0.14151    0.52313    0.23846    1.000
    N872     N        0.15501    0.53362    0.16247    1.000
    Si873    Si       0.14242    0.56567    0.22775    1.000
    Si874    Si       0.11301    0.54557    0.16392    1.000
    N875     N        0.11486    0.57560    0.19622    1.000
    N876     N        0.11096    0.57054    0.12762    1.000
    Si877    Si       0.15890    0.70025    0.19432    1.000
    N878     N        0.16683    0.70436    0.23977    1.000
    N879     N        0.14726    0.73949    0.17799    1.000
    N880     N        0.13257    0.66789    0.18686    1.000
    Si881    Si       0.12120    0.65873    0.14339    1.000
    N882     N        0.12974    0.57827    0.33548    1.000
    N883     N        0.14157    0.59139    0.26230    1.000
    Si884    Si       0.13065    0.60654    0.30178    1.000
    Si885    Si       0.15961    0.57385    0.36657    1.000
    N886     N        0.13440    0.65470    0.35484    1.000
    N887     N        0.12606    0.68414    0.30179    1.000
    Si888    Si       0.13538    0.71206    0.26766    1.000
    N889     N        0.11881    0.73238    0.34457    1.000
    Si890    Si       0.15947    0.66572    0.32143    1.000
    Si891    Si       0.15829    0.73771    0.36439    1.000
    N892     N        0.12435    0.75266    0.28034    1.000
    N893     N        0.14666    0.59725    0.40135    1.000
    N894     N        0.12165    0.55549    0.46256    1.000
    Si895    Si       0.15411    0.57960    0.44190    1.000
    N896     N        0.15675    0.53254    0.38362    1.000
    Si897    Si       0.10738    0.58122    0.49388    1.000
    Si898    Si       0.14748    0.72112    0.47968    1.000
    N899     N        0.14002    0.75149    0.40127    1.000
    N900     N        0.11473    0.75031    0.48651    1.000
    Si901    Si       0.13236    0.64475    0.46288    1.000
    N902     N        0.13695    0.66254    0.42442    1.000
    N903     N        0.13380    0.68129    0.48977    1.000
    Si904    Si       0.12684    0.63333    0.39126    1.000
    N905     N        0.14122    0.57926    0.52057    1.000
    N906     N        0.15665    0.53180    0.60048    1.000
    N907     N        0.10349    0.51132    0.53018    1.000
    Si908    Si       0.14598    0.63684    0.57747    1.000
    Si909    Si       0.12000    0.67565    0.52978    1.000
    N910     N        0.10658    0.64398    0.56242    1.000
    N911     N        0.16514    0.66299    0.54727    1.000
    Si912    Si       0.11745    0.75494    0.52956    1.000
    Si913    Si       0.16116    0.59787    0.67730    1.000
    N914     N        0.11032    0.52145    0.66410    1.000
    Si915    Si       0.14526    0.52840    0.64298    1.000
    N916     N        0.15703    0.56954    0.64604    1.000
    N917     N        0.12483    0.62173    0.67956    1.000
    N918     N        0.14057    0.53014    0.72526    1.000
    N919     N        0.14440    0.65379    0.61846    1.000
    Si920    Si       0.12980    0.70780    0.68561    1.000
    N921     N        0.13275    0.69530    0.72835    1.000
    N922     N        0.12326    0.74980    0.68476    1.000
    Si923    Si       0.11089    0.64701    0.64560    1.000
    N924     N        0.14031    0.55713    0.85401    1.000
    N925     N        0.14710    0.62442    0.81479    1.000
    Si926    Si       0.15883    0.59771    0.84820    1.000
    N927     N        0.12485    0.60027    0.75155    1.000
    Si928    Si       0.11149    0.61426    0.79206    1.000
    N929     N        0.10899    0.51444    0.80774    1.000
    Si930    Si       0.15143    0.56645    0.74672    1.000
    N931     N        0.10811    0.75209    0.75660    1.000
    Si932    Si       0.13880    0.71983    0.76269    1.000
    Si933    Si       0.12794    0.71664    0.82713    1.000
    N934     N        0.14813    0.69161    0.79762    1.000
    Si935    Si       0.10812    0.54674    0.95384    1.000
    N936     N        0.14585    0.56455    0.93608    1.000
    N937     N        0.15978    0.61752    0.88633    1.000
    Si938    Si       0.13441    0.60279    0.91745    1.000
    Si939    Si       0.16148    0.70443    0.89559    1.000
    N940     N        0.12734    0.70237    0.86806    1.000
    Si941    Si       0.11716    0.67652    0.94295    1.000
    Si942    Si       0.12549    0.73717    0.96236    1.000
    N943     N        0.12449    0.63189    0.95023    1.000
    N944     N        0.14497    0.71049    0.93529    1.000
    N945     N        0.12778    0.80503    0.05348    1.000
    Si946    Si       0.15254    0.84498    0.04827    1.000
    Si947    Si       0.14416    0.77103    0.07663    1.000
    N948     N        0.12519    0.87057    0.07111    1.000
    N949     N        0.15891    0.82916    0.00554    1.000
    Si950    Si       0.12684    0.80074    0.00891    1.000
    N951     N        0.15986    0.77954    0.11525    1.000
    Si952    Si       0.11918    0.88898    0.11056    1.000
    Si953    Si       0.14861    0.97496    0.06077    1.000
    N954     N        0.15241    0.97859    0.10490    1.000
    Si955    Si       0.12451    0.86232    0.23202    1.000
    N956     N        0.15271    0.86838    0.19787    1.000
    Si957    Si       0.14369    0.84022    0.16082    1.000
    N958     N        0.13727    0.79969    0.17371    1.000
    N959     N        0.10967    0.86015    0.14223    1.000
    Si960    Si       0.11173    0.76360    0.17624    1.000
    Si961    Si       0.14978    0.90747    0.17214    1.000
    N962     N        0.14948    0.00027    0.16786    1.000
    Si963    Si       0.13687    0.96724    0.19696    1.000
    N964     N        0.15324    0.90988    0.12812    1.000
    N965     N        0.11447    0.92745    0.18525    1.000
    N966     N        0.14700    0.98506    0.23852    1.000
    N967     N        0.12780    0.80227    0.31861    1.000
    Si968    Si       0.14341    0.79168    0.27792    1.000
    Si969    Si       0.11174    0.81880    0.35837    1.000
    N970     N        0.12968    0.82242    0.24907    1.000
    N971     N        0.12816    0.89117    0.26346    1.000
    N972     N        0.13157    0.97473    0.30477    1.000
    Si973    Si       0.11216    0.98349    0.26424    1.000
    Si974    Si       0.16068    0.00039    0.32348    1.000
    N975     N        0.12468    0.95219    0.37400    1.000
    Si976    Si       0.10702    0.95931    0.33485    1.000
    Si977    Si       0.13887    0.82177    0.43434    1.000
    N978     N        0.13891    0.85646    0.46316    1.000
    N979     N        0.13843    0.83291    0.39183    1.000
    N980     N        0.16356    0.90091    0.39057    1.000
    N981     N        0.12969    0.00093    0.42716    1.000
    Si982    Si       0.15092    0.89747    0.46877    1.000
    Si983    Si       0.12401    0.91608    0.39819    1.000
    N984     N        0.12118    0.91564    0.44231    1.000
    Si985    Si       0.14904    0.98183    0.39248    1.000
    N986     N        0.15064    0.78094    0.53952    1.000
    Si987    Si       0.15440    0.81678    0.56497    1.000
    N988     N        0.11619    0.83599    0.57033    1.000
    Si989    Si       0.10748    0.87249    0.59137    1.000
    N990     N        0.13876    0.76442    0.61785    1.000
    N991     N        0.16451    0.90397    0.51095    1.000
    N992     N        0.13950    0.90255    0.58065    1.000
    Si993    Si       0.12926    0.94167    0.60036    1.000
    N994     N        0.16302    0.96861    0.58955    1.000
    Si995    Si       0.15988    0.00505    0.61264    1.000
    Si996    Si       0.10762    0.77489    0.71893    1.000
    N997     N        0.16013    0.80519    0.67387    1.000
    Si998    Si       0.12612    0.78200    0.65411    1.000
    Si999    Si       0.15266    0.83533    0.70339    1.000
    N1000    N        0.11532    0.81740    0.72282    1.000
    N1001    N        0.15528    0.87778    0.68574    1.000
    Si1002   Si       0.11576    0.97934    0.66401    1.000
    N1003    N        0.12090    0.00735    0.63115    1.000
    Si1004   Si       0.13326    0.00593    0.72725    1.000
    Si1005   Si       0.11950    0.89750    0.66806    1.000
    N1006    N        0.15047    0.99023    0.69020    1.000
    N1007    N        0.12233    0.93935    0.64655    1.000
    N1008    N        0.14190    0.81178    0.80168    1.000
    Si1009   Si       0.15426    0.84414    0.77176    1.000
    N1010    N        0.11902    0.86623    0.76462    1.000
    Si1011   Si       0.11333    0.79846    0.82987    1.000
    N1012    N        0.11131    0.81595    0.87052    1.000
    N1013    N        0.11675    0.87691    0.83659    1.000
    N1014    N        0.13942    0.76026    0.83338    1.000
    Si1015   Si       0.14060    0.90676    0.86107    1.000
    N1016    N        0.12476    0.92683    0.78709    1.000
    N1017    N        0.13687    0.99216    0.80850    1.000
    N1018    N        0.12192    0.94585    0.86748    1.000
    Si1019   Si       0.10930    0.96593    0.78595    1.000
    Si1020   Si       0.16343    0.91496    0.77285    1.000
    N1021    N        0.11178    0.76773    0.93389    1.000
    Si1022   Si       0.15387    0.86586    0.92689    1.000
    Si1023   Si       0.12834    0.79817    0.90905    1.000
    N1024    N        0.12837    0.83302    0.93592    1.000
    Si1025   Si       0.16638    0.99273    0.99679    1.000
    N1026    N        0.12917    0.88327    0.89636    1.000
    Si1027   Si       0.14698    0.93014    0.96113    1.000
    N1028    N        0.15789    0.88986    0.96253    1.000
    N1029    N        0.15695    0.95451    0.92704    1.000
    N1030    N        0.12579    0.00120    0.98721    1.000
    Si1031   Si       0.12838    0.97412    0.89896    1.000
    N1032    N        0.15448    0.00907    0.89926    1.000
    N1033    N        0.17867    0.11062    0.10537    1.000
    N1034    N        0.21083    0.11880    0.03919    1.000
    N1035    N        0.21132    0.05986    0.07797    1.000
    Si1036   Si       0.21225    0.10325    0.08013    1.000
    N1037    N        0.20259    0.05351    0.00615    1.000
    Si1038   Si       0.18691    0.04254    0.04456    1.000
    Si1039   Si       0.18336    0.09385    0.01520    1.000
    Si1040   Si       0.18571    0.18671    0.04399    1.000
    Si1041   Si       0.20513    0.21085    0.10842    1.000
    N1042    N        0.18443    0.17999    0.08735    1.000
    N1043    N        0.20183    0.25059    0.08877    1.000
    N1044    N        0.21586    0.26151    0.02115    1.000
    Si1045   Si       0.18166    0.25949    0.05052    1.000
    N1046    N        0.17780    0.06433    0.16533    1.000
    N1047    N        0.20701    0.10738    0.21763    1.000
    Si1048   Si       0.18651    0.02203    0.16429    1.000
    Si1049   Si       0.17534    0.08223    0.20288    1.000
    N1050    N        0.21340    0.01582    0.13294    1.000
    Si1051   Si       0.18070    0.01144    0.23350    1.000
    N1052    N        0.17122    0.05369    0.23625    1.000
    N1053    N        0.20644    0.00832    0.20074    1.000
    Si1054   Si       0.19199    0.22503    0.23497    1.000
    Si1055   Si       0.18198    0.18397    0.17047    1.000
    N1056    N        0.22171    0.16784    0.17952    1.000
    N1057    N        0.16597    0.19777    0.20923    1.000
    N1058    N        0.18798    0.21994    0.14747    1.000
    N1059    N        0.20079    0.08884    0.28771    1.000
    Si1060   Si       0.18426    0.05134    0.27630    1.000
    Si1061   Si       0.19660    0.11895    0.25752    1.000
    N1062    N        0.20805    0.01674    0.26946    1.000
    N1063    N        0.16794    0.08039    0.36105    1.000
    Si1064   Si       0.19955    0.23605    0.31404    1.000
    Si1065   Si       0.20779    0.16782    0.33593    1.000
    N1066    N        0.18068    0.24325    0.27382    1.000
    N1067    N        0.17152    0.23135    0.34682    1.000
    N1068    N        0.17158    0.14958    0.32644    1.000
    N1069    N        0.21842    0.19866    0.30785    1.000
    N1070    N        0.18928    0.01330    0.46576    1.000
    Si1071   Si       0.18521    0.04454    0.37780    1.000
    Si1072   Si       0.20555    0.08498    0.43675    1.000
    N1073    N        0.18672    0.10037    0.47311    1.000
    N1074    N        0.17452    0.05775    0.42021    1.000
    N1075    N        0.21206    0.11018    0.40277    1.000
    N1076    N        0.18803    0.25284    0.48460    1.000
    N1077    N        0.18133    0.22687    0.41779    1.000
    N1078    N        0.20436    0.17945    0.37818    1.000
    N1079    N        0.20240    0.15887    0.44979    1.000
    Si1080   Si       0.17070    0.20605    0.38220    1.000
    Si1081   Si       0.19476    0.14887    0.40876    1.000
    Si1082   Si       0.16819    0.14566    0.47743    1.000
    N1083    N        0.18831    0.11126    0.58604    1.000
    N1084    N        0.21096    0.03446    0.53088    1.000
    Si1085   Si       0.17543    0.07968    0.61436    1.000
    Si1086   Si       0.17081    0.04605    0.54950    1.000
    N1087    N        0.17181    0.04126    0.59306    1.000
    Si1088   Si       0.20835    0.17772    0.53481    1.000
    N1089    N        0.18144    0.21271    0.54100    1.000
    N1090    N        0.17287    0.15228    0.52551    1.000
    Si1091   Si       0.19661    0.25147    0.52646    1.000
    N1092    N        0.17301    0.24849    0.60127    1.000
    N1093    N        0.20232    0.08451    0.64818    1.000
    N1094    N        0.21188    0.03117    0.69587    1.000
    Si1095   Si       0.21143    0.12502    0.65926    1.000
    Si1096   Si       0.19900    0.03939    0.73482    1.000
    N1097    N        0.17112    0.07590    0.72402    1.000
    N1098    N        0.16873    0.21416    0.66227    1.000
    N1099    N        0.17451    0.14020    0.67837    1.000
    N1100    N        0.19645    0.18594    0.74136    1.000
    N1101    N        0.18195    0.24736    0.72630    1.000
    Si1102   Si       0.19343    0.24071    0.68347    1.000
    Si1103   Si       0.18437    0.06143    0.83136    1.000
    N1104    N        0.19488    0.02121    0.81868    1.000
    Si1105   Si       0.18613    0.12186    0.78085    1.000
    N1106    N        0.20788    0.07730    0.86126    1.000
    N1107    N        0.17490    0.08345    0.79514    1.000
    N1108    N        0.18443    0.15415    0.80879    1.000
    N1109    N        0.21058    0.23143    0.79672    1.000
    Si1110   Si       0.17168    0.23265    0.81814    1.000
    Si1111   Si       0.21063    0.22602    0.75465    1.000
    Si1112   Si       0.21636    0.04192    0.96738    1.000
    Si1113   Si       0.20038    0.09315    0.90073    1.000
    N1114    N        0.21963    0.07452    0.93740    1.000
    N1115    N        0.17293    0.10957    0.97815    1.000
    N1116    N        0.19029    0.00680    0.96220    1.000
    N1117    N        0.19342    0.19487    0.96612    1.000
    Si1118   Si       0.17866    0.15511    0.97703    1.000
    Si1119   Si       0.16677    0.22341    0.94633    1.000
    Si1120   Si       0.17306    0.16444    0.90734    1.000
    N1121    N        0.20599    0.13639    0.90563    1.000
    N1122    N        0.20448    0.32597    0.08981    1.000
    N1123    N        0.21029    0.33971    0.02554    1.000
    Si1124   Si       0.21737    0.28856    0.10556    1.000
    Si1125   Si       0.17082    0.35750    0.02071    1.000
    Si1126   Si       0.19409    0.42321    0.04334    1.000
    N1127    N        0.17877    0.39975    0.00989    1.000
    Si1128   Si       0.18017    0.45362    0.11040    1.000
    N1129    N        0.19375    0.49569    0.10826    1.000
    N1130    N        0.22154    0.39546    0.06217    1.000
    N1131    N        0.20276    0.29004    0.14698    1.000
    Si1132   Si       0.21738    0.32616    0.16613    1.000
    N1133    N        0.17690    0.34382    0.17666    1.000
    Si1134   Si       0.18015    0.25821    0.16568    1.000
    N1135    N        0.20226    0.25716    0.20584    1.000
    N1136    N        0.18456    0.37505    0.24711    1.000
    Si1137   Si       0.18208    0.38043    0.20169    1.000
    N1138    N        0.18418    0.47958    0.20102    1.000
    Si1139   Si       0.17585    0.49663    0.24051    1.000
    Si1140   Si       0.16489    0.44998    0.17375    1.000
    N1141    N        0.19589    0.42872    0.14131    1.000
    N1142    N        0.17681    0.34545    0.35884    1.000
    Si1143   Si       0.22065    0.34949    0.34669    1.000
    Si1144   Si       0.21817    0.37715    0.27380    1.000
    N1145    N        0.22090    0.34329    0.30304    1.000
    Si1146   Si       0.19344    0.44838    0.30653    1.000
    N1147    N        0.20355    0.46817    0.34588    1.000
    N1148    N        0.17595    0.46748    0.27296    1.000
    N1149    N        0.22205    0.41740    0.29394    1.000
    Si1150   Si       0.20312    0.26525    0.41002    1.000
    Si1151   Si       0.18154    0.33545    0.39968    1.000
    Si1152   Si       0.19201    0.29490    0.47265    1.000
    N1153    N        0.17336    0.29154    0.38986    1.000
    N1154    N        0.22085    0.35087    0.41244    1.000
    N1155    N        0.21866    0.29273    0.43811    1.000
    Si1156   Si       0.22539    0.39437    0.40313    1.000
    Si1157   Si       0.18549    0.45538    0.38422    1.000
    N1158    N        0.18507    0.48084    0.42108    1.000
    N1159    N        0.18533    0.41443    0.39902    1.000
    N1160    N        0.20033    0.44658    0.48158    1.000
    Si1161   Si       0.16769    0.45985    0.45506    1.000
    N1162    N        0.18522    0.28836    0.54888    1.000
    Si1163   Si       0.18674    0.28616    0.59184    1.000
    N1164    N        0.20016    0.36131    0.55458    1.000
    Si1165   Si       0.18056    0.32986    0.53363    1.000
    N1166    N        0.20740    0.32498    0.49867    1.000
    N1167    N        0.21296    0.43521    0.55137    1.000
    N1168    N        0.20177    0.48644    0.59980    1.000
    Si1169   Si       0.20353    0.46592    0.52150    1.000
    Si1170   Si       0.21177    0.44453    0.59304    1.000
    N1171    N        0.16863    0.48715    0.53714    1.000
    N1172    N        0.18808    0.41837    0.61744    1.000
    Si1173   Si       0.20689    0.31244    0.65770    1.000
    N1174    N        0.18620    0.35023    0.64718    1.000
    N1175    N        0.17874    0.28118    0.66959    1.000
    N1176    N        0.20179    0.35083    0.73293    1.000
    Si1177   Si       0.17121    0.38026    0.72231    1.000
    N1178    N        0.17698    0.50963    0.66513    1.000
    Si1179   Si       0.17843    0.44621    0.68068    1.000
    Si1180   Si       0.21217    0.49446    0.64449    1.000
    N1181    N        0.17314    0.46629    0.71838    1.000
    N1182    N        0.18702    0.40263    0.69018    1.000
    Si1183   Si       0.20106    0.39064    0.65160    1.000
    N1184    N        0.21788    0.45656    0.66514    1.000
    Si1185   Si       0.17888    0.51038    0.71078    1.000
    N1186    N        0.18031    0.29563    0.77503    1.000
    Si1187   Si       0.21304    0.32407    0.76575    1.000
    N1188    N        0.17277    0.33389    0.85217    1.000
    Si1189   Si       0.21639    0.34164    0.84626    1.000
    N1190    N        0.20848    0.34696    0.80156    1.000
    Si1191   Si       0.21796    0.26768    0.86464    1.000
    N1192    N        0.17965    0.26380    0.84835    1.000
    Si1193   Si       0.18678    0.38642    0.79177    1.000
    Si1194   Si       0.20303    0.41352    0.85908    1.000
    Si1195   Si       0.21689    0.48633    0.82925    1.000
    N1196    N        0.17127    0.40480    0.82927    1.000
    N1197    N        0.17653    0.50461    0.83509    1.000
    N1198    N        0.22617    0.47785    0.78872    1.000
    N1199    N        0.22501    0.40738    0.78293    1.000
    Si1200   Si       0.20280    0.28983    0.93774    1.000
    N1201    N        0.19160    0.32592    0.92033    1.000
    N1202    N        0.16610    0.26725    0.95103    1.000
    N1203    N        0.22250    0.26249    0.90807    1.000
    N1204    N        0.20307    0.43328    0.95964    1.000
    N1205    N        0.18690    0.43805    0.89117    1.000
    N1206    N        0.22042    0.49111    0.91743    1.000
    Si1207   Si       0.21645    0.44951    0.92073    1.000
    Si1208   Si       0.16313    0.42253    0.97266    1.000
    N1209    N        0.20276    0.58052    0.01489    1.000
    Si1210   Si       0.18476    0.59420    0.05195    1.000
    Si1211   Si       0.20389    0.53660    0.00929    1.000
    N1212    N        0.21741    0.60812    0.07747    1.000
    N1213    N        0.20361    0.67628    0.05283    1.000
    Si1214   Si       0.17330    0.66137    0.02461    1.000
    Si1215   Si       0.21262    0.74804    0.07960    1.000
    N1216    N        0.17648    0.74909    0.05740    1.000
    N1217    N        0.21716    0.72473    0.11617    1.000
    Si1218   Si       0.16760    0.73233    0.01775    1.000
    Si1219   Si       0.21927    0.56198    0.23262    1.000
    Si1220   Si       0.19090    0.55764    0.17256    1.000
    N1221    N        0.18252    0.57534    0.21215    1.000
    N1222    N        0.18936    0.58232    0.13680    1.000
    Si1223   Si       0.19599    0.69032    0.13484    1.000
    N1224    N        0.20338    0.64204    0.24452    1.000
    N1225    N        0.19920    0.69748    0.17697    1.000
    N1226    N        0.20042    0.58355    0.35583    1.000
    Si1227   Si       0.20994    0.61575    0.32559    1.000
    Si1228   Si       0.18080    0.60883    0.26298    1.000
    N1229    N        0.21079    0.57920    0.27335    1.000
    N1230    N        0.17049    0.62617    0.30604    1.000
    N1231    N        0.21226    0.51971    0.24154    1.000
    N1232    N        0.19390    0.69062    0.30250    1.000
    Si1233   Si       0.21095    0.69490    0.34348    1.000
    Si1234   Si       0.19939    0.68281    0.25895    1.000
    N1235    N        0.22039    0.65218    0.34991    1.000
    Si1236   Si       0.18864    0.52285    0.41277    1.000
    N1237    N        0.19009    0.55629    0.44241    1.000
    N1238    N        0.16460    0.61654    0.46330    1.000
    N1239    N        0.18076    0.70305    0.37265    1.000
    N1240    N        0.20780    0.66886    0.48769    1.000
    Si1241   Si       0.20347    0.63637    0.45697    1.000
    Si1242   Si       0.20577    0.70977    0.47476    1.000
    Si1243   Si       0.17484    0.68346    0.41276    1.000
    N1244    N        0.17424    0.71519    0.44432    1.000
    N1245    N        0.20910    0.65493    0.41717    1.000
    N1246    N        0.20159    0.54579    0.55171    1.000
    N1247    N        0.20689    0.61208    0.52787    1.000
    Si1248   Si       0.17869    0.58144    0.54168    1.000
    Si1249   Si       0.17956    0.56884    0.60825    1.000
    Si1250   Si       0.17964    0.51027    0.57162    1.000
    N1251    N        0.22118    0.57569    0.61721    1.000
    N1252    N        0.16715    0.59791    0.57864    1.000
    N1253    N        0.19489    0.73433    0.57314    1.000
    Si1254   Si       0.20327    0.65554    0.52988    1.000
    N1255    N        0.18126    0.73143    0.50546    1.000
    N1256    N        0.21441    0.67475    0.61615    1.000
    Si1257   Si       0.18985    0.75974    0.53714    1.000
    N1258    N        0.21572    0.52570    0.73131    1.000
    Si1259   Si       0.21785    0.57026    0.72283    1.000
    N1260    N        0.17688    0.58225    0.71384    1.000
    N1261    N        0.19114    0.62477    0.65863    1.000
    Si1262   Si       0.20048    0.72079    0.67069    1.000
    N1263    N        0.20559    0.75133    0.63897    1.000
    N1264    N        0.20110    0.75348    0.70123    1.000
    Si1265   Si       0.20718    0.74258    0.74256    1.000
    N1266    N        0.16787    0.69636    0.66775    1.000
    Si1267   Si       0.18062    0.66412    0.64045    1.000
    Si1268   Si       0.20279    0.56464    0.79831    1.000
    N1269    N        0.19781    0.58672    0.83457    1.000
    N1270    N        0.21933    0.58448    0.76415    1.000
    Si1271   Si       0.16535    0.52625    0.87098    1.000
    N1272    N        0.16450    0.54736    0.78372    1.000
    Si1273   Si       0.17568    0.65605    0.80436    1.000
    N1274    N        0.19322    0.66341    0.84207    1.000
    N1275    N        0.21248    0.65338    0.78180    1.000
    Si1276   Si       0.21676    0.69979    0.84850    1.000
    N1277    N        0.17247    0.74693    0.76818    1.000
    N1278    N        0.19590    0.54523    0.89514    1.000
    N1279    N        0.18999    0.51751    0.97045    1.000
    Si1280   Si       0.17265    0.52901    0.93138    1.000
    Si1281   Si       0.22332    0.61214    0.99057    1.000
    N1282    N        0.18891    0.72669    0.86907    1.000
    Si1283   Si       0.19418    0.64411    0.88113    1.000
    N1284    N        0.19412    0.67576    0.90934    1.000
    N1285    N        0.19569    0.64375    0.99179    1.000
    N1286    N        0.20265    0.73603    0.99316    1.000
    N1287    N        0.18444    0.83672    0.07557    1.000
    Si1288   Si       0.20926    0.87217    0.06692    1.000
    Si1289   Si       0.19022    0.81085    0.10755    1.000
    N1290    N        0.22386    0.78790    0.09436    1.000
    N1291    N        0.17875    0.88124    0.03214    1.000
    N1292    N        0.22239    0.88446    0.10605    1.000
    Si1293   Si       0.18669    0.92417    0.02743    1.000
    Si1294   Si       0.17656    0.94095    0.10845    1.000
    N1295    N        0.17611    0.93970    0.06615    1.000
    N1296    N        0.17022    0.00419    0.03763    1.000
    N1297    N        0.16888    0.94863    0.99633    1.000
    Si1298   Si       0.21811    0.86473    0.14474    1.000
    N1299    N        0.18201    0.83866    0.14119    1.000
    N1300    N        0.21077    0.77440    0.16613    1.000
    N1301    N        0.21191    0.82830    0.22133    1.000
    Si1302   Si       0.19463    0.86805    0.21041    1.000
    Si1303   Si       0.16843    0.77088    0.15704    1.000
    N1304    N        0.21595    0.94651    0.12525    1.000
    Si1305   Si       0.21215    0.92587    0.20307    1.000
    N1306    N        0.20249    0.90018    0.23843    1.000
    N1307    N        0.21105    0.89087    0.17633    1.000
    N1308    N        0.17224    0.94013    0.19142    1.000
    N1309    N        0.18632    0.79651    0.28413    1.000
    N1310    N        0.18455    0.84604    0.34400    1.000
    Si1311   Si       0.18920    0.80616    0.32661    1.000
    Si1312   Si       0.21904    0.81671    0.26344    1.000
    N1313    N        0.18320    0.76782    0.34726    1.000
    Si1314   Si       0.21792    0.86873    0.32994    1.000
    N1315    N        0.22315    0.85055    0.28957    1.000
    N1316    N        0.19465    0.97357    0.32679    1.000
    N1317    N        0.21942    0.90829    0.31097    1.000
    Si1318   Si       0.17056    0.85943    0.38289    1.000
    N1319    N        0.20459    0.85032    0.41068    1.000
    N1320    N        0.17385    0.79780    0.44144    1.000
    Si1321   Si       0.20914    0.82366    0.44468    1.000
    N1322    N        0.21565    0.84622    0.48091    1.000
    N1323    N        0.21400    0.75923    0.40259    1.000
    Si1324   Si       0.17646    0.75717    0.42518    1.000
    N1325    N        0.18702    0.92283    0.45718    1.000
    N1326    N        0.18883    0.96536    0.39952    1.000
    Si1327   Si       0.19296    0.92625    0.41519    1.000
    N1328    N        0.18360    0.80195    0.59268    1.000
    Si1329   Si       0.21314    0.83261    0.52331    1.000
    N1330    N        0.17757    0.84673    0.54399    1.000
    N1331    N        0.21946    0.79067    0.53033    1.000
    Si1332   Si       0.17892    0.76025    0.60375    1.000
    Si1333   Si       0.22211    0.81989    0.60489    1.000
    Si1334   Si       0.19623    0.95539    0.56464    1.000
    N1335    N        0.19816    0.96358    0.52103    1.000
    N1336    N        0.20566    0.91157    0.56487    1.000
    Si1337   Si       0.18879    0.00279    0.50920    1.000
    Si1338   Si       0.16905    0.89016    0.55216    1.000
    Si1339   Si       0.20139    0.92629    0.49834    1.000
    Si1340   Si       0.19781    0.78347    0.67013    1.000
    N1341    N        0.17863    0.83064    0.73891    1.000
    Si1342   Si       0.22023    0.83446    0.73569    1.000
    N1343    N        0.22205    0.81194    0.64777    1.000
    N1344    N        0.22485    0.87263    0.71604    1.000
    N1345    N        0.19550    0.99975    0.64120    1.000
    N1346    N        0.21792    0.90812    0.66555    1.000
    N1347    N        0.21816    0.96391    0.69963    1.000
    Si1348   Si       0.20880    0.95498    0.74525    1.000
    N1349    N        0.18095    0.92208    0.73344    1.000
    Si1350   Si       0.19186    0.89883    0.69848    1.000
    Si1351   Si       0.19333    0.99371    0.68192    1.000
    N1352    N        0.20072    0.77931    0.82698    1.000
    Si1353   Si       0.17574    0.76503    0.85995    1.000
    N1354    N        0.18021    0.87617    0.78613    1.000
    Si1355   Si       0.21726    0.86392    0.80450    1.000
    N1356    N        0.21981    0.84684    0.84301    1.000
    Si1357   Si       0.16627    0.77581    0.79940    1.000
    N1358    N        0.21056    0.99922    0.75470    1.000
    N1359    N        0.18305    0.90823    0.85425    1.000
    N1360    N        0.18747    0.95178    0.78692    1.000
    Si1361   Si       0.20353    0.93195    0.82366    1.000
    Si1362   Si       0.17599    0.99827    0.78657    1.000
    N1363    N        0.22090    0.96247    0.84722    1.000
    Si1364   Si       0.20338    0.81106    0.91193    1.000
    Si1365   Si       0.20607    0.87587    0.87277    1.000
    N1366    N        0.22161    0.86835    0.97975    1.000
    N1367    N        0.21509    0.80858    0.95285    1.000
    N1368    N        0.18997    0.85232    0.90578    1.000
    Si1369   Si       0.18056    0.86429    0.99139    1.000
    N1370    N        0.16920    0.79000    0.89462    1.000
    Si1371   Si       0.18519    0.98878    0.92419    1.000
    N1372    N        0.25223    0.11712    0.09323    1.000
    Si1373   Si       0.23787    0.03762    0.10400    1.000
    N1374    N        0.27747    0.12606    0.02947    1.000
    Si1375   Si       0.23798    0.14465    0.01862    1.000
    Si1376   Si       0.24371    0.22624    0.01864    1.000
    N1377    N        0.26892    0.23265    0.05442    1.000
    N1378    N        0.24560    0.19438    0.11412    1.000
    N1379    N        0.22573    0.18782    0.03021    1.000
    N1380    N        0.26644    0.05839    0.12529    1.000
    N1381    N        0.25771    0.11852    0.16076    1.000
    Si1382   Si       0.27760    0.10129    0.12547    1.000
    Si1383   Si       0.23615    0.12871    0.19652    1.000
    N1384    N        0.27236    0.00779    0.24032    1.000
    Si1385   Si       0.26106    0.16319    0.14416    1.000
    N1386    N        0.23005    0.20154    0.23934    1.000
    Si1387   Si       0.25119    0.18566    0.20681    1.000
    N1388    N        0.28083    0.19115    0.17326    1.000
    N1389    N        0.26911    0.14829    0.22333    1.000
    N1390    N        0.26885    0.02907    0.31089    1.000
    Si1391   Si       0.25605    0.04008    0.35307    1.000
    Si1392   Si       0.23679    0.10596    0.30925    1.000
    N1393    N        0.23935    0.07879    0.34627    1.000
    N1394    N        0.27481    0.09575    0.29071    1.000
    Si1395   Si       0.27613    0.13146    0.26503    1.000
    Si1396   Si       0.24966    0.00578    0.27713    1.000
    N1397    N        0.26600    0.20326    0.35450    1.000
    N1398    N        0.24420    0.14084    0.34262    1.000
    Si1399   Si       0.26874    0.24286    0.33467    1.000
    Si1400   Si       0.24018    0.18169    0.27563    1.000
    N1401    N        0.23196    0.13908    0.27372    1.000
    Si1402   Si       0.27737    0.16888    0.33546    1.000
    Si1403   Si       0.24664    0.11162    0.37353    1.000
    Si1404   Si       0.23162    0.01742    0.45003    1.000
    Si1405   Si       0.27079    0.08529    0.46279    1.000
    N1406    N        0.24147    0.06063    0.44347    1.000
    N1407    N        0.26512    0.12830    0.46998    1.000
    N1408    N        0.28326    0.10905    0.39471    1.000
    N1409    N        0.25507    0.00921    0.48497    1.000
    N1410    N        0.22225    0.02374    0.37306    1.000
    Si1411   Si       0.24389    0.16677    0.46394    1.000
    N1412    N        0.25881    0.18497    0.42636    1.000
    Si1413   Si       0.24003    0.20190    0.39005    1.000
    N1414    N        0.23914    0.24596    0.39438    1.000
    N1415    N        0.25636    0.09342    0.57494    1.000
    Si1416   Si       0.25355    0.03673    0.52086    1.000
    Si1417   Si       0.26659    0.05457    0.59083    1.000
    N1418    N        0.27412    0.07184    0.50617    1.000
    N1419    N        0.27519    0.02882    0.55695    1.000
    Si1420   Si       0.22812    0.12604    0.58905    1.000
    N1421    N        0.24531    0.22210    0.60390    1.000
    N1422    N        0.23508    0.16137    0.56510    1.000
    Si1423   Si       0.26226    0.23661    0.56969    1.000
    Si1424   Si       0.27044    0.21748    0.50528    1.000
    N1425    N        0.24004    0.24711    0.53401    1.000
    N1426    N        0.23422    0.18943    0.50202    1.000
    Si1427   Si       0.27833    0.16674    0.56323    1.000
    N1428    N        0.25164    0.03362    0.62820    1.000
    N1429    N        0.26636    0.06423    0.67962    1.000
    Si1430   Si       0.26594    0.05143    0.72306    1.000
    Si1431   Si       0.27238    0.10832    0.69366    1.000
    N1432    N        0.23583    0.12933    0.69487    1.000
    Si1433   Si       0.22859    0.05295    0.66163    1.000
    N1434    N        0.24961    0.24617    0.74437    1.000
    Si1435   Si       0.22763    0.15605    0.72959    1.000
    N1436    N        0.24184    0.13599    0.62895    1.000
    Si1437   Si       0.26553    0.22012    0.71311    1.000
    Si1438   Si       0.26099    0.22767    0.64360    1.000
    N1439    N        0.23638    0.22960    0.68001    1.000
    N1440    N        0.26454    0.17953    0.73134    1.000
    Si1441   Si       0.28246    0.15111    0.63400    1.000
    N1442    N        0.25597    0.08918    0.81286    1.000
    Si1443   Si       0.24984    0.06727    0.84941    1.000
    Si1444   Si       0.25428    0.09707    0.76869    1.000
    N1445    N        0.24862    0.02581    0.86113    1.000
    N1446    N        0.23452    0.05884    0.75225    1.000
    N1447    N        0.22329    0.12583    0.76206    1.000
    N1448    N        0.26428    0.14185    0.85661    1.000
    N1449    N        0.24428    0.23333    0.85772    1.000
    Si1450   Si       0.24969    0.23191    0.81520    1.000
    N1451    N        0.26813    0.19748    0.79862    1.000
    N1452    N        0.25461    0.02444    0.97527    1.000
    Si1453   Si       0.24601    0.10782    0.95204    1.000
    N1454    N        0.26976    0.12193    0.91964    1.000
    N1455    N        0.27860    0.08574    0.96995    1.000
    Si1456   Si       0.23756    0.18662    0.96031    1.000
    Si1457   Si       0.24969    0.22940    0.90333    1.000
    Si1458   Si       0.24750    0.14939    0.89495    1.000
    N1459    N        0.24424    0.18734    0.91855    1.000
    N1460    N        0.26371    0.21266    0.98261    1.000
    N1461    N        0.23473    0.14455    0.97565    1.000
    N1462    N        0.28430    0.24072    0.92852    1.000
    N1463    N        0.26163    0.28879    0.10254    1.000
    N1464    N        0.26730    0.30055    0.03421    1.000
    N1465    N        0.27145    0.36249    0.05483    1.000
    Si1466   Si       0.22988    0.30207    0.01146    1.000
    Si1467   Si       0.27896    0.27401    0.06532    1.000
    Si1468   Si       0.23086    0.35276    0.06381    1.000
    Si1469   Si       0.26199    0.40141    0.04110    1.000
    N1470    N        0.25721    0.48179    0.09538    1.000
    Si1471   Si       0.26005    0.46940    0.05365    1.000
    N1472    N        0.22664    0.45063    0.03120    1.000
    N1473    N        0.26219    0.40894    0.99918    1.000
    N1474    N        0.23498    0.32438    0.20666    1.000
    N1475    N        0.26743    0.28314    0.17147    1.000
    Si1476   Si       0.23941    0.28011    0.20537    1.000
    N1477    N        0.25021    0.34484    0.14385    1.000
    Si1478   Si       0.25111    0.36416    0.20799    1.000
    Si1479   Si       0.27623    0.30819    0.13649    1.000
    N1480    N        0.26120    0.26712    0.23885    1.000
    Si1481   Si       0.27943    0.37784    0.14471    1.000
    N1482    N        0.25963    0.48189    0.22544    1.000
    Si1483   Si       0.23050    0.42531    0.16453    1.000
    Si1484   Si       0.26927    0.46357    0.13230    1.000
    N1485    N        0.24066    0.46836    0.16672    1.000
    N1486    N        0.26543    0.41879    0.13852    1.000
    Si1487   Si       0.22663    0.49481    0.19867    1.000
    N1488    N        0.22306    0.39490    0.19323    1.000
    Si1489   Si       0.24313    0.30437    0.31122    1.000
    N1490    N        0.25533    0.32010    0.35034    1.000
    N1491    N        0.23046    0.26383    0.31930    1.000
    N1492    N        0.25316    0.37389    0.24952    1.000
    N1493    N        0.23837    0.38516    0.36046    1.000
    Si1494   Si       0.27816    0.38849    0.34285    1.000
    N1495    N        0.24673    0.48134    0.29737    1.000
    Si1496   Si       0.25991    0.44094    0.29794    1.000
    Si1497   Si       0.23674    0.49480    0.33618    1.000
    N1498    N        0.26898    0.48987    0.36723    1.000
    Si1499   Si       0.25062    0.50369    0.26157    1.000
    N1500    N        0.27931    0.43129    0.33475    1.000
    Si1501   Si       0.27893    0.26060    0.39906    1.000
    N1502    N        0.27140    0.33361    0.46756    1.000
    Si1503   Si       0.24888    0.32309    0.43040    1.000
    N1504    N        0.28389    0.30478    0.40933    1.000
    Si1505   Si       0.23555    0.42143    0.47544    1.000
    N1506    N        0.24295    0.41822    0.43314    1.000
    N1507    N        0.27131    0.44356    0.48328    1.000
    N1508    N        0.27197    0.48406    0.42789    1.000
    N1509    N        0.26553    0.32718    0.53565    1.000
    Si1510   Si       0.26391    0.29459    0.60979    1.000
    N1511    N        0.27454    0.33659    0.60954    1.000
    Si1512   Si       0.26638    0.28468    0.52971    1.000
    Si1513   Si       0.24645    0.34449    0.50119    1.000
    N1514    N        0.28040    0.27544    0.57328    1.000
    N1515    N        0.22146    0.29605    0.61817    1.000
    N1516    N        0.23543    0.49517    0.52192    1.000
    N1517    N        0.25413    0.44163    0.60706    1.000
    N1518    N        0.26921    0.39326    0.56327    1.000
    Si1519   Si       0.27324    0.47561    0.51132    1.000
    N1520    N        0.23793    0.38738    0.50312    1.000
    Si1521   Si       0.22779    0.39424    0.54403    1.000
    N1522    N        0.24356    0.32723    0.67604    1.000
    Si1523   Si       0.26692    0.35309    0.64937    1.000
    Si1524   Si       0.24124    0.34294    0.71577    1.000
    N1525    N        0.25941    0.38173    0.72234    1.000
    N1526    N        0.24476    0.38978    0.65016    1.000
    Si1527   Si       0.25101    0.43285    0.65094    1.000
    N1528    N        0.26792    0.27097    0.80532    1.000
    Si1529   Si       0.27274    0.27923    0.76323    1.000
    N1530    N        0.23928    0.30628    0.85492    1.000
    Si1531   Si       0.27955    0.29520    0.84061    1.000
    N1532    N        0.25170    0.31545    0.74947    1.000
    N1533    N        0.22402    0.37773    0.86990    1.000
    Si1534   Si       0.24890    0.43926    0.79938    1.000
    N1535    N        0.27520    0.44230    0.76236    1.000
    N1536    N        0.24566    0.50145    0.85826    1.000
    N1537    N        0.23140    0.44329    0.83956    1.000
    Si1538   Si       0.28074    0.39995    0.75866    1.000
    N1539    N        0.26059    0.36780    0.93317    1.000
    Si1540   Si       0.26486    0.32784    0.95133    1.000
    N1541    N        0.23254    0.30585    0.96820    1.000
    Si1542   Si       0.26540    0.46112    0.87046    1.000
    N1543    N        0.25047    0.43361    0.90182    1.000
    Si1544   Si       0.23604    0.50885    0.95512    1.000
    Si1545   Si       0.23570    0.44115    0.98895    1.000
    N1546    N        0.25670    0.46982    0.96514    1.000
    Si1547   Si       0.25718    0.39126    0.89621    1.000
    Si1548   Si       0.26508    0.53205    0.02689    1.000
    N1549    N        0.24713    0.55289    0.10272    1.000
    N1550    N        0.26332    0.62606    0.00382    1.000
    Si1551   Si       0.22853    0.51577    0.09043    1.000
    Si1552   Si       0.22713    0.58977    0.11590    1.000
    N1553    N        0.22683    0.52155    0.04699    1.000
    Si1554   Si       0.22611    0.65021    0.08141    1.000
    N1555    N        0.24622    0.73468    0.05715    1.000
    N1556    N        0.26488    0.66544    0.07143    1.000
    Si1557   Si       0.24462    0.69369    0.04483    1.000
    N1558    N        0.25433    0.69439    0.00420    1.000
    Si1559   Si       0.28011    0.75433    0.03933    1.000
    N1560    N        0.25641    0.58921    0.21885    1.000
    Si1561   Si       0.26053    0.56977    0.17880    1.000
    N1562    N        0.25570    0.60463    0.14891    1.000
    N1563    N        0.23067    0.53917    0.18557    1.000
    N1564    N        0.22253    0.65792    0.12384    1.000
    Si1565   Si       0.24395    0.63113    0.22781    1.000
    N1566    N        0.26466    0.71719    0.16702    1.000
    N1567    N        0.23534    0.70126    0.24005    1.000
    Si1568   Si       0.24260    0.74815    0.14249    1.000
    Si1569   Si       0.23894    0.69938    0.19639    1.000
    N1570    N        0.25070    0.65724    0.19230    1.000
    Si1571   Si       0.25468    0.64873    0.15087    1.000
    N1572    N        0.25214    0.60405    0.31281    1.000
    Si1573   Si       0.24299    0.56320    0.29772    1.000
    N1574    N        0.26764    0.54246    0.26867    1.000
    N1575    N        0.23804    0.53849    0.33057    1.000
    Si1576   Si       0.23838    0.56508    0.36748    1.000
    N1577    N        0.24108    0.72411    0.35020    1.000
    N1578    N        0.27110    0.64925    0.25666    1.000
    Si1579   Si       0.27566    0.69232    0.25413    1.000
    Si1580   Si       0.26825    0.51741    0.40191    1.000
    N1581    N        0.24682    0.59783    0.40001    1.000
    N1582    N        0.27360    0.55532    0.44297    1.000
    N1583    N        0.23391    0.60560    0.46422    1.000
    Si1584   Si       0.23283    0.57048    0.43565    1.000
    N1585    N        0.22812    0.53505    0.39802    1.000
    Si1586   Si       0.23841    0.63943    0.38913    1.000
    N1587    N        0.24158    0.72951    0.46201    1.000
    Si1588   Si       0.27408    0.70761    0.37394    1.000
    Si1589   Si       0.27620    0.73081    0.49084    1.000
    N1590    N        0.27327    0.66690    0.38980    1.000
    Si1591   Si       0.26129    0.56383    0.60365    1.000
    N1592    N        0.26860    0.53216    0.57279    1.000
    Si1593   Si       0.24065    0.53362    0.53987    1.000
    N1594    N        0.25539    0.55919    0.50939    1.000
    Si1595   Si       0.24422    0.60167    0.50613    1.000
    N1596    N        0.27711    0.62605    0.51989    1.000
    N1597    N        0.27855    0.60211    0.59193    1.000
    Si1598   Si       0.27491    0.66828    0.53259    1.000
    N1599    N        0.25758    0.72003    0.59938    1.000
    N1600    N        0.23619    0.67488    0.54919    1.000
    N1601    N        0.26079    0.73966    0.52950    1.000
    Si1602   Si       0.22109    0.70019    0.58173    1.000
    Si1603   Si       0.22812    0.60352    0.65278    1.000
    N1604    N        0.24268    0.52172    0.65419    1.000
    N1605    N        0.24070    0.58183    0.68816    1.000
    Si1606   Si       0.27059    0.54555    0.67638    1.000
    N1607    N        0.26468    0.62365    0.73920    1.000
    Si1608   Si       0.27869    0.59877    0.70743    1.000
    N1609    N        0.22999    0.70442    0.73990    1.000
    N1610    N        0.24055    0.70108    0.67066    1.000
    Si1611   Si       0.25850    0.70834    0.70788    1.000
    Si1612   Si       0.25352    0.67573    0.63857    1.000
    N1613    N        0.25985    0.63256    0.64831    1.000
    N1614    N        0.27652    0.74692    0.71518    1.000
    Si1615   Si       0.26357    0.53381    0.83489    1.000
    N1616    N        0.25566    0.61480    0.81429    1.000
    Si1617   Si       0.23792    0.59855    0.85045    1.000
    N1618    N        0.23517    0.53697    0.80384    1.000
    Si1619   Si       0.24044    0.61944    0.77413    1.000
    N1620    N        0.25998    0.56368    0.86613    1.000
    Si1621   Si       0.23837    0.51220    0.76744    1.000
    N1622    N        0.28148    0.50912    0.76082    1.000
    N1623    N        0.23299    0.71673    0.81102    1.000
    Si1624   Si       0.23972    0.68773    0.78019    1.000
    N1625    N        0.22913    0.62153    0.88393    1.000
    Si1626   Si       0.23750    0.53116    0.89251    1.000
    N1627    N        0.23807    0.59457    0.95264    1.000
    Si1628   Si       0.25285    0.61937    0.91981    1.000
    Si1629   Si       0.26769    0.56455    0.95906    1.000
    N1630    N        0.26027    0.53590    0.92758    1.000
    N1631    N        0.24770    0.53712    0.98798    1.000
    N1632    N        0.24130    0.72979    0.93610    1.000
    Si1633   Si       0.24296    0.73032    0.98040    1.000
    N1634    N        0.25303    0.65820    0.94210    1.000
    Si1635   Si       0.23434    0.69054    0.91818    1.000
    Si1636   Si       0.27204    0.66137    0.98084    1.000
    N1637    N        0.24867    0.69488    0.87734    1.000
    Si1638   Si       0.26588    0.79938    0.09525    1.000
    N1639    N        0.24622    0.86398    0.04993    1.000
    Si1640   Si       0.28041    0.87170    0.07542    1.000
    Si1641   Si       0.25060    0.87935    0.00909    1.000
    N1642    N        0.28214    0.83920    0.10557    1.000
    N1643    N        0.27184    0.83767    0.99498    1.000
    N1644    N        0.27958    0.91545    0.07728    1.000
    Si1645   Si       0.26766    0.93454    0.03997    1.000
    N1646    N        0.22937    0.92017    0.02603    1.000
    N1647    N        0.25329    0.99810    0.08946    1.000
    Si1648   Si       0.25194    0.91922    0.11673    1.000
    N1649    N        0.27167    0.97547    0.02932    1.000
    Si1650   Si       0.23249    0.80316    0.18972    1.000
    N1651    N        0.26916    0.78227    0.20127    1.000
    N1652    N        0.27620    0.77336    0.13142    1.000
    N1653    N        0.24459    0.83331    0.15877    1.000
    Si1654   Si       0.28283    0.84851    0.14737    1.000
    Si1655   Si       0.24463    0.98169    0.12991    1.000
    N1656    N        0.26769    0.00094    0.16683    1.000
    N1657    N        0.27824    0.89142    0.14615    1.000
    N1658    N        0.24516    0.95101    0.21352    1.000
    Si1659   Si       0.24627    0.99513    0.20417    1.000
    N1660    N        0.25757    0.79761    0.26936    1.000
    Si1661   Si       0.26742    0.80805    0.31116    1.000
    N1662    N        0.23462    0.80215    0.34078    1.000
    N1663    N        0.24873    0.87173    0.36035    1.000
    Si1664   Si       0.22324    0.76157    0.36017    1.000
    N1665    N        0.25291    0.96265    0.35492    1.000
    N1666    N        0.25263    0.96352    0.28555    1.000
    N1667    N        0.26829    0.89706    0.26291    1.000
    Si1668   Si       0.26959    0.94249    0.25268    1.000
    Si1669   Si       0.22890    0.94902    0.31897    1.000
    Si1670   Si       0.22655    0.89013    0.27249    1.000
    Si1671   Si       0.27898    0.82825    0.44674    1.000
    N1672    N        0.26067    0.86784    0.43976    1.000
    Si1673   Si       0.25188    0.87192    0.48627    1.000
    Si1674   Si       0.24102    0.87630    0.40306    1.000
    N1675    N        0.24660    0.79926    0.44249    1.000
    Si1676   Si       0.25001    0.75780    0.43021    1.000
    Si1677   Si       0.22508    0.98212    0.38235    1.000
    Si1678   Si       0.26839    0.94836    0.42101    1.000
    N1679    N        0.24656    0.98570    0.42248    1.000
    N1680    N        0.23551    0.92037    0.41063    1.000
    N1681    N        0.24743    0.78566    0.59005    1.000
    N1682    N        0.24638    0.85603    0.59830    1.000
    N1683    N        0.24983    0.85535    0.53523    1.000
    Si1684   Si       0.25818    0.77831    0.55000    1.000
    Si1685   Si       0.24321    0.88601    0.56624    1.000
    N1686    N        0.27562    0.91633    0.56270    1.000
    N1687    N        0.24386    0.91308    0.49884    1.000
    N1688    N        0.22757    0.97562    0.58516    1.000
    Si1689   Si       0.27904    0.92795    0.52090    1.000
    Si1690   Si       0.26326    0.78129    0.73715    1.000
    N1691    N        0.27317    0.77231    0.65218    1.000
    N1692    N        0.24364    0.80837    0.70994    1.000
    N1693    N        0.27288    0.85094    0.66408    1.000
    Si1694   Si       0.26082    0.81094    0.66854    1.000
    Si1695   Si       0.24866    0.88173    0.68359    1.000
    Si1696   Si       0.28190    0.86193    0.62377    1.000
    Si1697   Si       0.24700    0.75606    0.62196    1.000
    Si1698   Si       0.24343    0.94154    0.67373    1.000
    Si1699   Si       0.23462    0.99479    0.62198    1.000
    N1700    N        0.27454    0.91597    0.69134    1.000
    N1701    N        0.26002    0.97181    0.64883    1.000
    N1702    N        0.26613    0.79065    0.82203    1.000
    N1703    N        0.23681    0.83638    0.77733    1.000
    N1704    N        0.23502    0.76814    0.76581    1.000
    Si1705   Si       0.27505    0.81982    0.79148    1.000
    Si1706   Si       0.23145    0.80629    0.84759    1.000
    Si1707   Si       0.23732    0.75967    0.80787    1.000
    Si1708   Si       0.25366    0.99589    0.76065    1.000
    Si1709   Si       0.26946    0.92679    0.79048    1.000
    N1710    N        0.23516    0.90554    0.80872    1.000
    N1711    N        0.26200    0.99599    0.80307    1.000
    N1712    N        0.25398    0.95097    0.75619    1.000
    Si1713   Si       0.23047    0.00165    0.83143    1.000
    Si1714   Si       0.24594    0.83752    0.96056    1.000
    N1715    N        0.26688    0.85083    0.92557    1.000
    N1716    N        0.23437    0.79125    0.88923    1.000
    Si1717   Si       0.25942    0.76244    0.90995    1.000
    N1718    N        0.27099    0.75881    0.99606    1.000
    N1719    N        0.22586    0.97828    0.91344    1.000
    N1720    N        0.23753    0.90287    0.89152    1.000
    Si1721   Si       0.27966    0.99476    0.99130    1.000
    Si1722   Si       0.23480    0.94669    0.88469    1.000
    N1723    N        0.27910    0.95305    0.89316    1.000
    Si1724   Si       0.26784    0.98226    0.92640    1.000
    Si1725   Si       0.27639    0.88912    0.90790    1.000
    N1726    N        0.31382    0.09641    0.08399    1.000
    Si1727   Si       0.31902    0.06659    0.05570    1.000
    N1728    N        0.33546    0.08423    0.01680    1.000
    Si1729   Si       0.30123    0.10823    0.99962    1.000
    Si1730   Si       0.28931    0.13380    0.07253    1.000
    N1731    N        0.28410    0.04109    0.05279    1.000
    N1732    N        0.30411    0.17619    0.06623    1.000
    N1733    N        0.30849    0.22598    0.11178    1.000
    Si1734   Si       0.28020    0.20366    0.08726    1.000
    Si1735   Si       0.34105    0.24599    0.08898    1.000
    Si1736   Si       0.32705    0.09001    0.18683    1.000
    Si1737   Si       0.30952    0.02664    0.23036    1.000
    N1738    N        0.31794    0.08472    0.14632    1.000
    N1739    N        0.30236    0.05487    0.19718    1.000
    Si1740   Si       0.29615    0.04293    0.15394    1.000
    N1741    N        0.32690    0.01354    0.14422    1.000
    N1742    N        0.32739    0.13346    0.18686    1.000
    N1743    N        0.32213    0.24540    0.18414    1.000
    Si1744   Si       0.33741    0.22998    0.22192    1.000
    N1745    N        0.29768    0.14776    0.12433    1.000
    N1746    N        0.32219    0.19202    0.23828    1.000
    Si1747   Si       0.33548    0.14601    0.14567    1.000
    Si1748   Si       0.31316    0.15329    0.22186    1.000
    Si1749   Si       0.31197    0.21386    0.15292    1.000
    Si1750   Si       0.29754    0.05982    0.29663    1.000
    N1751    N        0.32902    0.05072    0.32473    1.000
    N1752    N        0.31957    0.05503    0.26089    1.000
    Si1753   Si       0.32386    0.02046    0.35518    1.000
    N1754    N        0.31982    0.12522    0.25304    1.000
    N1755    N        0.31415    0.15726    0.35514    1.000
    Si1756   Si       0.31363    0.20161    0.28008    1.000
    N1757    N        0.28877    0.23548    0.29488    1.000
    N1758    N        0.28124    0.17059    0.29137    1.000
    N1759    N        0.29353    0.03988    0.37878    1.000
    N1760    N        0.30918    0.07217    0.44502    1.000
    Si1761   Si       0.31022    0.07450    0.40186    1.000
    Si1762   Si       0.34190    0.04729    0.45823    1.000
    N1763    N        0.33983    0.13053    0.49136    1.000
    N1764    N        0.32354    0.00873    0.47420    1.000
    Si1765   Si       0.31748    0.13748    0.39313    1.000
    Si1766   Si       0.29976    0.19440    0.43879    1.000
    N1767    N        0.33009    0.16824    0.42368    1.000
    N1768    N        0.30374    0.23538    0.42524    1.000
    N1769    N        0.29314    0.18761    0.48076    1.000
    Si1770   Si       0.29824    0.14473    0.49301    1.000
    N1771    N        0.30415    0.06217    0.60872    1.000
    N1772    N        0.33053    0.08121    0.54722    1.000
    Si1773   Si       0.33790    0.05505    0.58105    1.000
    Si1774   Si       0.28764    0.09414    0.54103    1.000
    N1775    N        0.34199    0.01451    0.56475    1.000
    N1776    N        0.30378    0.15255    0.59546    1.000
    Si1777   Si       0.33289    0.21349    0.54278    1.000
    N1778    N        0.33690    0.23859    0.57610    1.000
    N1779    N        0.28679    0.20611    0.54756    1.000
    N1780    N        0.28891    0.13632    0.53283    1.000
    N1781    N        0.30030    0.12525    0.66623    1.000
    N1782    N        0.31808    0.01283    0.66248    1.000
    Si1783   Si       0.29055    0.04495    0.64760    1.000
    Si1784   Si       0.33993    0.11661    0.68367    1.000
    N1785    N        0.28458    0.09040    0.73487    1.000
    N1786    N        0.33957    0.13104    0.72366    1.000
    N1787    N        0.28329    0.01560    0.73627    1.000
    Si1788   Si       0.32248    0.21156    0.66901    1.000
    N1789    N        0.28967    0.19418    0.64677    1.000
    N1790    N        0.30465    0.23349    0.70124    1.000
    Si1791   Si       0.31885    0.11116    0.75495    1.000
    N1792    N        0.32803    0.11891    0.83673    1.000
    Si1793   Si       0.28732    0.12350    0.82464    1.000
    N1794    N        0.28866    0.13177    0.77979    1.000
    N1795    N        0.32814    0.18654    0.76193    1.000
    N1796    N        0.32649    0.21695    0.82759    1.000
    Si1797   Si       0.28778    0.17391    0.76996    1.000
    Si1798   Si       0.33335    0.25515    0.84467    1.000
    N1799    N        0.28826    0.07262    0.86906    1.000
    Si1800   Si       0.32656    0.09536    0.87226    1.000
    Si1801   Si       0.29407    0.04477    0.95514    1.000
    Si1802   Si       0.30901    0.10738    0.93483    1.000
    N1803    N        0.32885    0.06661    0.93603    1.000
    N1804    N        0.31514    0.02058    0.98839    1.000
    N1805    N        0.33355    0.12391    0.90285    1.000
    Si1806   Si       0.29064    0.02994    0.87760    1.000
    N1807    N        0.28970    0.01911    0.91923    1.000
    N1808    N        0.31949    0.13345    0.96914    1.000
    Si1809   Si       0.30171    0.23069    0.96813    1.000
    N1810    N        0.33800    0.20692    0.96451    1.000
    N1811    N        0.32029    0.28325    0.07565    1.000
    N1812    N        0.33277    0.33985    0.03527    1.000
    Si1813   Si       0.29136    0.33554    0.02593    1.000
    N1814    N        0.31243    0.37088    0.11852    1.000
    Si1815   Si       0.32236    0.49085    0.00561    1.000
    Si1816   Si       0.32681    0.44459    0.05836    1.000
    N1817    N        0.28734    0.49398    0.02973    1.000
    N1818    N        0.28568    0.43237    0.05946    1.000
    Si1819   Si       0.31046    0.28631    0.18095    1.000
    N1820    N        0.31866    0.30569    0.14232    1.000
    N1821    N        0.33560    0.31035    0.20905    1.000
    N1822    N        0.28611    0.37797    0.18819    1.000
    N1823    N        0.32893    0.38428    0.24397    1.000
    N1824    N        0.31680    0.43909    0.20135    1.000
    N1825    N        0.30273    0.48442    0.14813    1.000
    Si1826   Si       0.32038    0.39772    0.20406    1.000
    Si1827   Si       0.33348    0.46523    0.17044    1.000
    Si1828   Si       0.29710    0.45976    0.23324    1.000
    Si1829   Si       0.30906    0.33043    0.30609    1.000
    N1830    N        0.29350    0.37073    0.30658    1.000
    N1831    N        0.32792    0.31622    0.34267    1.000
    Si1832   Si       0.29245    0.26898    0.26838    1.000
    Si1833   Si       0.33715    0.27565    0.35745    1.000
    N1834    N        0.33269    0.26177    0.25188    1.000
    Si1835   Si       0.29360    0.32500    0.37192    1.000
    N1836    N        0.29716    0.26328    0.36009    1.000
    N1837    N        0.28043    0.30168    0.29256    1.000
    Si1838   Si       0.29248    0.38938    0.26715    1.000
    N1839    N        0.31887    0.49145    0.25475    1.000
    N1840    N        0.33145    0.46679    0.36744    1.000
    Si1841   Si       0.29030    0.45214    0.36976    1.000
    N1842    N        0.28523    0.43239    0.26385    1.000
    N1843    N        0.30104    0.36725    0.37167    1.000
    N1844    N        0.33377    0.28638    0.46069    1.000
    N1845    N        0.33266    0.35747    0.43336    1.000
    Si1846   Si       0.31372    0.32606    0.46039    1.000
    N1847    N        0.33702    0.34351    0.49354    1.000
    Si1848   Si       0.33992    0.25662    0.43074    1.000
    Si1849   Si       0.33703    0.48671    0.47709    1.000
    N1850    N        0.32817    0.45930    0.44495    1.000
    N1851    N        0.30018    0.42409    0.40255    1.000
    Si1852   Si       0.32463    0.38702    0.40197    1.000
    Si1853   Si       0.28499    0.44588    0.44023    1.000
    N1854    N        0.30067    0.50384    0.49350    1.000
    Si1855   Si       0.32392    0.28082    0.57476    1.000
    N1856    N        0.32804    0.35670    0.56412    1.000
    N1857    N        0.33712    0.29375    0.53555    1.000
    Si1858   Si       0.33008    0.27040    0.50030    1.000
    N1859    N        0.33985    0.30028    0.61097    1.000
    Si1860   Si       0.28552    0.35139    0.56795    1.000
    N1861    N        0.28888    0.25768    0.50198    1.000
    N1862    N        0.32756    0.42542    0.59585    1.000
    N1863    N        0.31757    0.49950    0.60748    1.000
    N1864    N        0.29201    0.46768    0.55202    1.000
    Si1865   Si       0.28701    0.43119    0.57758    1.000
    N1866    N        0.28452    0.26618    0.63676    1.000
    N1867    N        0.32598    0.30131    0.68347    1.000
    N1868    N        0.30534    0.36718    0.66978    1.000
    Si1869   Si       0.32475    0.27776    0.64542    1.000
    Si1870   Si       0.32950    0.26889    0.71266    1.000
    Si1871   Si       0.33910    0.34319    0.68391    1.000
    N1872    N        0.31692    0.39816    0.73127    1.000
    Si1873   Si       0.31695    0.46828    0.67949    1.000
    N1874    N        0.33026    0.47018    0.72143    1.000
    Si1875   Si       0.29151    0.39900    0.69547    1.000
    N1876    N        0.28514    0.43748    0.67601    1.000
    Si1877   Si       0.30109    0.37314    0.83568    1.000
    N1878    N        0.30163    0.33091    0.83364    1.000
    N1879    N        0.30409    0.27292    0.86957    1.000
    N1880    N        0.31540    0.27456    0.75224    1.000
    N1881    N        0.34112    0.28572    0.81429    1.000
    N1882    N        0.28900    0.39161    0.80034    1.000
    Si1883   Si       0.30614    0.47219    0.75657    1.000
    Si1884   Si       0.31999    0.48758    0.82523    1.000
    N1885    N        0.33658    0.47503    0.78791    1.000
    N1886    N        0.29059    0.45712    0.83393    1.000
    Si1887   Si       0.30623    0.27339    0.91225    1.000
    N1888    N        0.30069    0.30631    0.93705    1.000
    Si1889   Si       0.33193    0.29341    0.96649    1.000
    N1890    N        0.32143    0.26469    0.99463    1.000
    N1891    N        0.28634    0.34795    0.98519    1.000
    N1892    N        0.29415    0.38865    0.87636    1.000
    Si1893   Si       0.33313    0.50392    0.89309    1.000
    N1894    N        0.30666    0.41925    0.95155    1.000
    Si1895   Si       0.29320    0.46072    0.94438    1.000
    N1896    N        0.29819    0.47773    0.90027    1.000
    N1897    N        0.32322    0.48699    0.96277    1.000
    Si1898   Si       0.33735    0.38923    0.88502    1.000
    Si1899   Si       0.28253    0.38669    0.96692    1.000
    N1900    N        0.31319    0.53463    0.09031    1.000
    N1901    N        0.30030    0.60488    0.09537    1.000
    Si1902   Si       0.29559    0.59973    0.01338    1.000
    N1903    N        0.33471    0.61919    0.01296    1.000
    Si1904   Si       0.28521    0.56597    0.08282    1.000
    N1905    N        0.28128    0.56838    0.04047    1.000
    Si1906   Si       0.29971    0.64695    0.09014    1.000
    N1907    N        0.31073    0.72501    0.04128    1.000
    N1908    N        0.33383    0.66476    0.06944    1.000
    Si1909   Si       0.32299    0.70989    0.00388    1.000
    N1910    N        0.33328    0.70940    0.11669    1.000
    Si1911   Si       0.33545    0.70782    0.07435    1.000
    Si1912   Si       0.31004    0.52358    0.13232    1.000
    N1913    N        0.31803    0.55192    0.21607    1.000
    Si1914   Si       0.30124    0.60317    0.13778    1.000
    N1915    N        0.29599    0.55916    0.15450    1.000
    Si1916   Si       0.29007    0.56998    0.24353    1.000
    N1917    N        0.33937    0.60333    0.16073    1.000
    Si1918   Si       0.34322    0.52033    0.22943    1.000
    Si1919   Si       0.33905    0.56195    0.17667    1.000
    Si1920   Si       0.33829    0.67002    0.13827    1.000
    N1921    N        0.32470    0.75061    0.17313    1.000
    N1922    N        0.29677    0.65285    0.13393    1.000
    N1923    N        0.30109    0.70585    0.22107    1.000
    Si1924   Si       0.30596    0.71058    0.17911    1.000
    N1925    N        0.34127    0.68528    0.17794    1.000
    N1926    N        0.31036    0.59478    0.27264    1.000
    Si1927   Si       0.32073    0.54333    0.35179    1.000
    N1928    N        0.33584    0.51474    0.32065    1.000
    Si1929   Si       0.28182    0.62561    0.29058    1.000
    Si1930   Si       0.33403    0.67298    0.33648    1.000
    N1931    N        0.31512    0.64115    0.31305    1.000
    N1932    N        0.30801    0.70775    0.34593    1.000
    Si1933   Si       0.31107    0.73886    0.31563    1.000
    N1934    N        0.30222    0.71917    0.27822    1.000
    Si1935   Si       0.32689    0.73210    0.24493    1.000
    Si1936   Si       0.28704    0.58224    0.41219    1.000
    N1937    N        0.32023    0.57123    0.48580    1.000
    N1938    N        0.31399    0.61458    0.42030    1.000
    N1939    N        0.28760    0.55219    0.37941    1.000
    Si1940   Si       0.28656    0.54312    0.48284    1.000
    N1941    N        0.30584    0.75509    0.46881    1.000
    Si1942   Si       0.31331    0.65649    0.40460    1.000
    N1943    N        0.27917    0.73650    0.40630    1.000
    N1944    N        0.31948    0.68820    0.43526    1.000
    N1945    N        0.33583    0.63631    0.48277    1.000
    Si1946   Si       0.31631    0.73074    0.43114    1.000
    Si1947   Si       0.32836    0.67761    0.47767    1.000
    Si1948   Si       0.31603    0.60931    0.50931    1.000
    N1949    N        0.33347    0.60283    0.54748    1.000
    Si1950   Si       0.31062    0.62705    0.57889    1.000
    N1951    N        0.33233    0.61938    0.61690    1.000
    Si1952   Si       0.30246    0.50716    0.56785    1.000
    N1953    N        0.30258    0.66811    0.56610    1.000
    N1954    N        0.32880    0.73577    0.57758    1.000
    Si1955   Si       0.29923    0.70563    0.59127    1.000
    N1956    N        0.29282    0.69154    0.49942    1.000
    Si1957   Si       0.31734    0.52999    0.63649    1.000
    N1958    N        0.31156    0.61259    0.68258    1.000
    Si1959   Si       0.29522    0.60826    0.63949    1.000
    N1960    N        0.29024    0.55788    0.71533    1.000
    N1961    N        0.30668    0.50780    0.67204    1.000
    N1962    N        0.28873    0.56294    0.63950    1.000
    N1963    N        0.33570    0.73346    0.68072    1.000
    Si1964   Si       0.31903    0.69389    0.67206    1.000
    Si1965   Si       0.29445    0.65598    0.74058    1.000
    N1966    N        0.33228    0.63669    0.74012    1.000
    N1967    N        0.30030    0.68868    0.63119    1.000
    N1968    N        0.29325    0.68172    0.70594    1.000
    N1969    N        0.32266    0.59114    0.84794    1.000
    N1970    N        0.31734    0.57628    0.77990    1.000
    N1971    N        0.30469    0.52839    0.82653    1.000
    Si1972   Si       0.33061    0.56009    0.81787    1.000
    Si1973   Si       0.30608    0.54417    0.75315    1.000
    N1974    N        0.31038    0.69978    0.83906    1.000
    Si1975   Si       0.31942    0.67840    0.80105    1.000
    N1976    N        0.28240    0.67890    0.77573    1.000
    N1977    N        0.30467    0.58140    0.97421    1.000
    N1978    N        0.29216    0.61273    0.90574    1.000
    N1979    N        0.32322    0.54409    0.89771    1.000
    Si1980   Si       0.29949    0.57629    0.88310    1.000
    N1981    N        0.31125    0.68274    0.90639    1.000
    N1982    N        0.33182    0.74187    0.97510    1.000
    Si1983   Si       0.29008    0.70477    0.87622    1.000
    Si1984   Si       0.32323    0.64167    0.91096    1.000
    N1985    N        0.31171    0.67873    0.97730    1.000
    N1986    N        0.28531    0.74855    0.88011    1.000
    N1987    N        0.31432    0.85734    0.05003    1.000
    Si1988   Si       0.29515    0.82347    0.02739    1.000
    N1989    N        0.32607    0.80379    0.00283    1.000
    N1990    N        0.28298    0.79485    0.05513    1.000
    Si1991   Si       0.33048    0.89319    0.01886    1.000
    Si1992   Si       0.30905    0.94201    0.09633    1.000
    N1993    N        0.31972    0.97700    0.07523    1.000
    Si1994   Si       0.28572    0.00035    0.06215    1.000
    N1995    N        0.28629    0.90441    0.00932    1.000
    N1996    N        0.33506    0.91457    0.11805    1.000
    Si1997   Si       0.28726    0.79574    0.23903    1.000
    N1998    N        0.31183    0.82320    0.16676    1.000
    Si1999   Si       0.29831    0.78270    0.16690    1.000
    Si2000   Si       0.32830    0.84395    0.20108    1.000
    N2001    N        0.30033    0.83940    0.23375    1.000
    N2002    N        0.32384    0.77493    0.24418    1.000
    Si2003   Si       0.31700    0.90945    0.15750    1.000
    Si2004   Si       0.33630    0.95580    0.22149    1.000
    Si2005   Si       0.30559    0.97862    0.15622    1.000
    N2006    N        0.33744    0.88341    0.18457    1.000
    N2007    N        0.31979    0.94706    0.18344    1.000
    N2008    N        0.28137    0.95287    0.12857    1.000
    N2009    N        0.29822    0.78055    0.32055    1.000
    Si2010   Si       0.29614    0.86553    0.26927    1.000
    Si2011   Si       0.28752    0.87577    0.34306    1.000
    N2012    N        0.28615    0.84802    0.30854    1.000
    Si2013   Si       0.33830    0.79441    0.32102    1.000
    N2014    N        0.33614    0.88618    0.27003    1.000
    Si2015   Si       0.29370    0.94840    0.35283    1.000
    Si2016   Si       0.32823    0.92347    0.29212    1.000
    N2017    N        0.29937    0.91388    0.32545    1.000
    N2018    N        0.31556    0.98255    0.33578    1.000
    N2019    N        0.31175    0.94810    0.25758    1.000
    N2020    N        0.31458    0.86681    0.37658    1.000
    Si2021   Si       0.33422    0.78784    0.45205    1.000
    N2022    N        0.31276    0.81464    0.42458    1.000
    Si2023   Si       0.33603    0.83167    0.39054    1.000
    N2024    N        0.28808    0.84284    0.48862    1.000
    N2025    N        0.29872    0.93277    0.39170    1.000
    Si2026   Si       0.28908    0.98444    0.48425    1.000
    Si2027   Si       0.32473    0.92057    0.46566    1.000
    N2028    N        0.29112    0.94855    0.45925    1.000
    Si2029   Si       0.32779    0.90284    0.39713    1.000
    N2030    N        0.33010    0.88770    0.43840    1.000
    N2031    N        0.29903    0.79586    0.54233    1.000
    Si2032   Si       0.29086    0.83878    0.53204    1.000
    Si2033   Si       0.33659    0.77350    0.55313    1.000
    N2034    N        0.32297    0.85700    0.55154    1.000
    N2035    N        0.31691    0.83612    0.61941    1.000
    N2036    N        0.30267    0.97263    0.59898    1.000
    Si2037   Si       0.30431    0.92831    0.59174    1.000
    Si2038   Si       0.30160    0.99503    0.55975    1.000
    N2039    N        0.31713    0.90969    0.50650    1.000
    N2040    N        0.29142    0.97003    0.52525    1.000
    N2041    N        0.34202    0.92151    0.57272    1.000
    Si2042   Si       0.34008    0.89278    0.53768    1.000
    N2043    N        0.33578    0.87147    0.67421    1.000
    N2044    N        0.31951    0.80245    0.69083    1.000
    Si2045   Si       0.33227    0.80739    0.73364    1.000
    Si2046   Si       0.30216    0.76215    0.68221    1.000
    Si2047   Si       0.33112    0.83074    0.65841    1.000
    N2048    N        0.33603    0.85072    0.74274    1.000
    Si2049   Si       0.31101    0.90645    0.66421    1.000
    Si2050   Si       0.32283    0.99642    0.74359    1.000
    Si2051   Si       0.30160    0.97718    0.64302    1.000
    Si2052   Si       0.28607    0.93009    0.73060    1.000
    N2053    N        0.29707    0.90255    0.62475    1.000
    N2054    N        0.31810    0.95658    0.72719    1.000
    N2055    N        0.32661    0.94755    0.66280    1.000
    Si2056   Si       0.31376    0.85344    0.84986    1.000
    N2057    N        0.30214    0.85049    0.80758    1.000
    Si2058   Si       0.29762    0.77965    0.85112    1.000
    N2059    N        0.29484    0.80118    0.75807    1.000
    N2060    N        0.33287    0.76788    0.82936    1.000
    Si2061   Si       0.32450    0.87412    0.77891    1.000
    Si2062   Si       0.30171    0.98580    0.81602    1.000
    N2063    N        0.29556    0.94259    0.82322    1.000
    N2064    N        0.33096    0.99347    0.78492    1.000
    N2065    N        0.29434    0.90233    0.76417    1.000
    Si2066   Si       0.30358    0.93160    0.86498    1.000
    N2067    N        0.31542    0.00217    0.85501    1.000
    N2068    N        0.30110    0.81639    0.87441    1.000
    Si2069   Si       0.29861    0.82182    0.91719    1.000
    Si2070   Si       0.30591    0.77763    0.97530    1.000
    N2071    N        0.33737    0.83514    0.92961    1.000
    N2072    N        0.28785    0.78500    0.93500    1.000
    Si2073   Si       0.33960    0.87344    0.94586    1.000
    N2074    N        0.34204    0.94042    0.88508    1.000
    N2075    N        0.30689    0.90040    0.94065    1.000
    N2076    N        0.30050    0.88846    0.87029    1.000
    Si2077   Si       0.30248    0.92743    0.97588    1.000
    N2078    N        0.28115    0.96272    0.96331    1.000
    Si2079   Si       0.36533    0.11678    0.01868    1.000
    N2080    N        0.38658    0.11325    0.05676    1.000
    N2081    N        0.34889    0.03368    0.05148    1.000
    Si2082   Si       0.34542    0.04290    0.00701    1.000
    Si2083   Si       0.34597    0.08826    0.11447    1.000
    Si2084   Si       0.39274    0.14062    0.09137    1.000
    N2085    N        0.37793    0.17909    0.07981    1.000
    N2086    N        0.35218    0.15908    0.01773    1.000
    N2087    N        0.34915    0.22708    0.05120    1.000
    Si2088   Si       0.34394    0.18438    0.05144    1.000
    Si2089   Si       0.35748    0.25444    0.01690    1.000
    N2090    N        0.37390    0.05578    0.12320    1.000
    N2091    N        0.36611    0.12594    0.12141    1.000
    N2092    N        0.36345    0.08592    0.21188    1.000
    Si2093   Si       0.36830    0.01378    0.13462    1.000
    N2094    N        0.34552    0.18758    0.15619    1.000
    Si2095   Si       0.38168    0.19453    0.17890    1.000
    N2096    N        0.37879    0.22376    0.21027    1.000
    Si2097   Si       0.37009    0.05144    0.30943    1.000
    N2098    N        0.37705    0.08407    0.28068    1.000
    N2099    N        0.39247    0.06722    0.34252    1.000
    Si2100   Si       0.37960    0.10437    0.36446    1.000
    N2101    N        0.37873    0.00970    0.30058    1.000
    Si2102   Si       0.34599    0.09066    0.25253    1.000
    N2103    N        0.37590    0.13417    0.33378    1.000
    Si2104   Si       0.37652    0.23038    0.30692    1.000
    Si2105   Si       0.35295    0.17146    0.34072    1.000
    N2106    N        0.34706    0.19771    0.30637    1.000
    N2107    N        0.39926    0.14712    0.26449    1.000
    N2108    N        0.36690    0.06110    0.48991    1.000
    N2109    N        0.36652    0.02357    0.43029    1.000
    N2110    N        0.34442    0.10164    0.38932    1.000
    N2111    N        0.39218    0.17935    0.49049    1.000
    Si2112   Si       0.36916    0.18692    0.41841    1.000
    Si2113   Si       0.38391    0.22129    0.48254    1.000
    N2114    N        0.36841    0.22438    0.44151    1.000
    N2115    N        0.37357    0.19015    0.37444    1.000
    N2116    N        0.37253    0.05894    0.60699    1.000
    Si2117   Si       0.35700    0.09507    0.51387    1.000
    N2118    N        0.39171    0.11718    0.52488    1.000
    N2119    N        0.37801    0.12342    0.58915    1.000
    Si2120   Si       0.36892    0.15516    0.51447    1.000
    Si2121   Si       0.36578    0.22652    0.60443    1.000
    N2122    N        0.35114    0.23239    0.50733    1.000
    N2123    N        0.34963    0.17247    0.54779    1.000
    N2124    N        0.36092    0.18387    0.61606    1.000
    Si2125   Si       0.34549    0.15552    0.58687    1.000
    Si2126   Si       0.38458    0.09863    0.62181    1.000
    N2127    N        0.35312    0.07377    0.69531    1.000
    N2128    N        0.39230    0.02242    0.66564    1.000
    Si2129   Si       0.37965    0.08624    0.72637    1.000
    Si2130   Si       0.35289    0.03251    0.68373    1.000
    N2131    N        0.36709    0.12687    0.65121    1.000
    Si2132   Si       0.39873    0.01111    0.73754    1.000
    N2133    N        0.39957    0.05382    0.74564    1.000
    Si2134   Si       0.35356    0.17252    0.72861    1.000
    Si2135   Si       0.37730    0.16825    0.65332    1.000
    N2136    N        0.39264    0.17779    0.74399    1.000
    N2137    N        0.35080    0.18283    0.68611    1.000
    N2138    N        0.34988    0.24017    0.64436    1.000
    Si2139   Si       0.39141    0.24020    0.66518    1.000
    N2140    N        0.37369    0.25821    0.70119    1.000
    N2141    N        0.37464    0.04000    0.81183    1.000
    N2142    N        0.35548    0.08981    0.76637    1.000
    Si2143   Si       0.38980    0.06077    0.84808    1.000
    Si2144   Si       0.39422    0.07341    0.78489    1.000
    N2145    N        0.39721    0.09721    0.82466    1.000
    Si2146   Si       0.37305    0.13077    0.83860    1.000
    N2147    N        0.37702    0.16837    0.81667    1.000
    N2148    N        0.37375    0.23205    0.78049    1.000
    Si2149   Si       0.35040    0.19839    0.79820    1.000
    N2150    N        0.37381    0.25430    0.86321    1.000
    N2151    N        0.40111    0.05511    0.92722    1.000
    N2152    N        0.35937    0.06623    0.87758    1.000
    Si2153   Si       0.36218    0.04406    0.91418    1.000
    N2154    N        0.39405    0.10871    0.98614    1.000
    N2155    N        0.38318    0.04036    0.99018    1.000
    N2156    N        0.39374    0.13656    0.87836    1.000
    Si2157   Si       0.36516    0.15341    0.90384    1.000
    Si2158   Si       0.34905    0.16600    0.97475    1.000
    Si2159   Si       0.38690    0.21745    0.88423    1.000
    N2160    N        0.39052    0.24801    0.98628    1.000
    N2161    N        0.35394    0.19161    0.89130    1.000
    Si2162   Si       0.36934    0.23237    0.94953    1.000
    N2163    N        0.37956    0.16037    0.94542    1.000
    N2164    N        0.40330    0.22816    0.92319    1.000
    N2165    N        0.37395    0.28692    0.04075    1.000
    N2166    N        0.36672    0.33493    0.09456    1.000
    Si2167   Si       0.36147    0.35203    0.00551    1.000
    Si2168   Si       0.35066    0.37675    0.10003    1.000
    Si2169   Si       0.34917    0.31226    0.06213    1.000
    N2170    N        0.37092    0.26304    0.11766    1.000
    N2171    N        0.40021    0.35026    0.02783    1.000
    Si2172   Si       0.37258    0.44217    0.10401    1.000
    N2173    N        0.34645    0.47444    0.08264    1.000
    Si2174   Si       0.37330    0.42774    0.00302    1.000
    N2175    N        0.35120    0.41487    0.07836    1.000
    N2176    N        0.34273    0.45485    0.01917    1.000
    N2177    N        0.38739    0.38680    0.12065    1.000
    Si2178   Si       0.35876    0.30420    0.12672    1.000
    N2179    N        0.38378    0.34363    0.22860    1.000
    N2180    N        0.38419    0.32101    0.15591    1.000
    Si2181   Si       0.36469    0.34001    0.18992    1.000
    N2182    N        0.35243    0.37948    0.18021    1.000
    Si2183   Si       0.35578    0.29846    0.24670    1.000
    N2184    N        0.39774    0.28531    0.24740    1.000
    N2185    N        0.36090    0.44247    0.14680    1.000
    N2186    N        0.35466    0.49366    0.19730    1.000
    Si2187   Si       0.38212    0.40557    0.15965    1.000
    N2188    N        0.36191    0.26856    0.32122    1.000
    Si2189   Si       0.36693    0.31240    0.31750    1.000
    Si2190   Si       0.36290    0.36320    0.26056    1.000
    N2191    N        0.34665    0.32650    0.28193    1.000
    Si2192   Si       0.40188    0.43102    0.27563    1.000
    N2193    N        0.39457    0.38841    0.28082    1.000
    Si2194   Si       0.34802    0.49266    0.28634    1.000
    N2195    N        0.37063    0.45723    0.29212    1.000
    Si2196   Si       0.36061    0.49691    0.35623    1.000
    N2197    N        0.40455    0.35963    0.45944    1.000
    N2198    N        0.35775    0.27182    0.39465    1.000
    Si2199   Si       0.36193    0.36680    0.46476    1.000
    N2200    N        0.36864    0.40577    0.48120    1.000
    N2201    N        0.36140    0.40813    0.39837    1.000
    N2202    N        0.38051    0.47727    0.40229    1.000
    Si2203   Si       0.34439    0.44804    0.40658    1.000
    N2204    N        0.38784    0.37028    0.59750    1.000
    N2205    N        0.39229    0.34025    0.53431    1.000
    Si2206   Si       0.37255    0.33014    0.61554    1.000
    Si2207   Si       0.34978    0.33588    0.53285    1.000
    N2208    N        0.35777    0.47336    0.51289    1.000
    N2209    N        0.37589    0.47727    0.58326    1.000
    Si2210   Si       0.37540    0.43468    0.51202    1.000
    N2211    N        0.37552    0.41119    0.54869    1.000
    Si2212   Si       0.35374    0.39123    0.57897    1.000
    Si2213   Si       0.37359    0.49766    0.54553    1.000
    Si2214   Si       0.34351    0.46243    0.60952    1.000
    N2215    N        0.37313    0.34048    0.65817    1.000
    N2216    N        0.37173    0.35631    0.71758    1.000
    Si2217   Si       0.40416    0.34949    0.68708    1.000
    Si2218   Si       0.35980    0.39738    0.73169    1.000
    N2219    N        0.38142    0.42060    0.70343    1.000
    Si2220   Si       0.38976    0.44126    0.66523    1.000
    Si2221   Si       0.36271    0.49696    0.72675    1.000
    N2222    N        0.35244    0.45974    0.65258    1.000
    N2223    N        0.36149    0.35069    0.78885    1.000
    Si2224   Si       0.35268    0.27073    0.77567    1.000
    Si2225   Si       0.38451    0.33730    0.75639    1.000
    N2226    N        0.38506    0.32478    0.84500    1.000
    Si2227   Si       0.34519    0.32900    0.82354    1.000
    N2228    N        0.38150    0.29521    0.75549    1.000
    N2229    N        0.34517    0.37733    0.84304    1.000
    Si2230   Si       0.37281    0.39259    0.80882    1.000
    N2231    N        0.37922    0.43410    0.83043    1.000
    Si2232   Si       0.37752    0.45579    0.79032    1.000
    N2233    N        0.37264    0.41428    0.77038    1.000
    N2234    N        0.35156    0.48948    0.85396    1.000
    Si2235   Si       0.37429    0.45248    0.87116    1.000
    N2236    N        0.39298    0.47386    0.74693    1.000
    Si2237   Si       0.39377    0.29282    0.87109    1.000
    N2238    N        0.38989    0.31403    0.90855    1.000
    Si2239   Si       0.37671    0.34364    0.93691    1.000
    N2240    N        0.36240    0.32433    0.97313    1.000
    N2241    N        0.34880    0.37218    0.92172    1.000
    N2242    N        0.34433    0.26396    0.93431    1.000
    Si2243   Si       0.36459    0.48267    0.95509    1.000
    Si2244   Si       0.34996    0.40895    0.94645    1.000
    N2245    N        0.37548    0.44083    0.96045    1.000
    N2246    N        0.39689    0.50534    0.97437    1.000
    N2247    N        0.35375    0.42848    0.90026    1.000
    N2248    N        0.37116    0.49419    0.91467    1.000
    N2249    N        0.35480    0.39104    0.98987    1.000
    N2250    N        0.38426    0.53389    0.08041    1.000
    N2251    N        0.35063    0.52381    0.02256    1.000
    Si2252   Si       0.34742    0.51564    0.06700    1.000
    Si2253   Si       0.38302    0.53794    0.99749    1.000
    N2254    N        0.37587    0.72789    0.06449    1.000
    N2255    N        0.36144    0.68883    0.01021    1.000
    Si2256   Si       0.39169    0.71904    0.02434    1.000
    Si2257   Si       0.35434    0.65049    0.03427    1.000
    N2258    N        0.39476    0.63814    0.04572    1.000
    Si2259   Si       0.39987    0.64576    0.08899    1.000
    Si2260   Si       0.38662    0.53765    0.12224    1.000
    N2261    N        0.37995    0.55634    0.19503    1.000
    N2262    N        0.34976    0.53593    0.14233    1.000
    Si2263   Si       0.38161    0.61373    0.15156    1.000
    Si2264   Si       0.39364    0.51378    0.18712    1.000
    N2265    N        0.38445    0.66369    0.24283    1.000
    Si2266   Si       0.37122    0.69115    0.21042    1.000
    N2267    N        0.37522    0.64621    0.12451    1.000
    N2268    N        0.36812    0.72818    0.23447    1.000
    N2269    N        0.39744    0.73022    0.13686    1.000
    Si2270   Si       0.35490    0.74426    0.13716    1.000
    Si2271   Si       0.37740    0.57082    0.35327    1.000
    N2272    N        0.38241    0.62009    0.29539    1.000
    N2273    N        0.37102    0.52221    0.26245    1.000
    N2274    N        0.33739    0.58010    0.33673    1.000
    Si2275   Si       0.34035    0.60635    0.30221    1.000
    Si2276   Si       0.38049    0.72465    0.32957    1.000
    N2277    N        0.36785    0.68549    0.31446    1.000
    Si2278   Si       0.39250    0.66281    0.28633    1.000
    N2279    N        0.35303    0.75346    0.31219    1.000
    N2280    N        0.35779    0.53569    0.37706    1.000
    Si2281   Si       0.37736    0.51713    0.41565    1.000
    Si2282   Si       0.36055    0.55549    0.47406    1.000
    N2283    N        0.35760    0.51681    0.45450    1.000
    N2284    N        0.37448    0.58236    0.44367    1.000
    Si2285   Si       0.35000    0.61596    0.44628    1.000
    N2286    N        0.39285    0.59977    0.38146    1.000
    N2287    N        0.38472    0.72000    0.37293    1.000
    N2288    N        0.37777    0.64851    0.43262    1.000
    N2289    N        0.36676    0.70064    0.48359    1.000
    Si2290   Si       0.38673    0.74949    0.40321    1.000
    N2291    N        0.34721    0.65562    0.37447    1.000
    Si2292   Si       0.38416    0.64201    0.39021    1.000
    Si2293   Si       0.39505    0.68538    0.45274    1.000
    N2294    N        0.38429    0.56448    0.51015    1.000
    N2295    N        0.38298    0.57682    0.57914    1.000
    Si2296   Si       0.35929    0.56779    0.54381    1.000
    Si2297   Si       0.36212    0.58644    0.61711    1.000
    N2298    N        0.34111    0.52822    0.55014    1.000
    Si2299   Si       0.38449    0.72528    0.51405    1.000
    Si2300   Si       0.36695    0.72071    0.58888    1.000
    N2301    N        0.37112    0.67902    0.60547    1.000
    N2302    N        0.38863    0.70756    0.55342    1.000
    N2303    N        0.38632    0.74759    0.61704    1.000
    N2304    N        0.36729    0.58159    0.70616    1.000
    Si2305   Si       0.37952    0.55295    0.67514    1.000
    N2306    N        0.35309    0.55146    0.64040    1.000
    Si2307   Si       0.35253    0.62380    0.70240    1.000
    N2308    N        0.39052    0.61504    0.64073    1.000
    N2309    N        0.38323    0.51492    0.69476    1.000
    N2310    N        0.37919    0.70819    0.72932    1.000
    Si2311   Si       0.38824    0.67904    0.69704    1.000
    N2312    N        0.39378    0.64260    0.71687    1.000
    N2313    N        0.35385    0.66537    0.67325    1.000
    Si2314   Si       0.36056    0.64631    0.63318    1.000
    Si2315   Si       0.36528    0.74600    0.70978    1.000
    N2316    N        0.37143    0.54933    0.82429    1.000
    N2317    N        0.38096    0.59951    0.77295    1.000
    N2318    N        0.39419    0.60692    0.84719    1.000
    Si2319   Si       0.35287    0.62198    0.84598    1.000
    Si2320   Si       0.38670    0.51279    0.83947    1.000
    N2321    N        0.34876    0.53141    0.74843    1.000
    Si2322   Si       0.37765    0.56375    0.74448    1.000
    Si2323   Si       0.34049    0.61246    0.77611    1.000
    Si2324   Si       0.39014    0.70164    0.77113    1.000
    N2325    N        0.35355    0.70704    0.79451    1.000
    Si2326   Si       0.34612    0.72676    0.83433    1.000
    N2327    N        0.36918    0.71986    0.87069    1.000
    N2328    N        0.34008    0.64090    0.80831    1.000
    N2329    N        0.37872    0.57318    0.97053    1.000
    Si2330   Si       0.34492    0.60070    0.97200    1.000
    N2331    N        0.34762    0.63458    0.94625    1.000
    N2332    N        0.35556    0.64884    0.88037    1.000
    Si2333   Si       0.37116    0.73975    0.95894    1.000
    Si2334   Si       0.37440    0.68586    0.89651    1.000
    Si2335   Si       0.35778    0.67005    0.96886    1.000
    N2336    N        0.37134    0.70126    0.93827    1.000
    Si2337   Si       0.39162    0.75111    0.88811    1.000
    N2338    N        0.39944    0.74609    0.98943    1.000
    N2339    N        0.37467    0.82969    0.04218    1.000
    N2340    N        0.37190    0.85834    0.10712    1.000
    Si2341   Si       0.35271    0.85701    0.06741    1.000
    N2342    N        0.35882    0.78146    0.11607    1.000
    Si2343   Si       0.36123    0.82869    0.00047    1.000
    Si2344   Si       0.38523    0.81629    0.11864    1.000
    N2345    N        0.36448    0.89595    0.04802    1.000
    Si2346   Si       0.36080    0.99327    0.06568    1.000
    N2347    N        0.38343    0.98217    0.03192    1.000
    N2348    N        0.38533    0.99325    0.10066    1.000
    Si2349   Si       0.37724    0.90157    0.11559    1.000
    Si2350   Si       0.37874    0.95017    0.00297    1.000
    N2351    N        0.36457    0.82606    0.21838    1.000
    Si2352   Si       0.37517    0.90034    0.19304    1.000
    N2353    N        0.37252    0.93189    0.22457    1.000
    N2354    N        0.38940    0.91861    0.15441    1.000
    Si2355   Si       0.38742    0.00235    0.21001    1.000
    N2356    N        0.38832    0.98834    0.16851    1.000
    N2357    N        0.34476    0.99960    0.21977    1.000
    Si2358   Si       0.36961    0.85928    0.27848    1.000
    Si2359   Si       0.38685    0.83529    0.33879    1.000
    N2360    N        0.37721    0.87294    0.31943    1.000
    N2361    N        0.35305    0.81289    0.35666    1.000
    N2362    N        0.35256    0.81870    0.28733    1.000
    Si2363   Si       0.36144    0.79688    0.25106    1.000
    N2364    N        0.40125    0.78117    0.25596    1.000
    N2365    N        0.36305    0.93800    0.31224    1.000
    Si2366   Si       0.38241    0.90935    0.34013    1.000
    Si2367   Si       0.35869    0.97885    0.32757    1.000
    N2368    N        0.36534    0.00370    0.36432    1.000
    N2369    N        0.37318    0.83812    0.41594    1.000
    N2370    N        0.35996    0.81820    0.47596    1.000
    Si2371   Si       0.35966    0.85642    0.45261    1.000
    Si2372   Si       0.39050    0.79448    0.49612    1.000
    N2373    N        0.35043    0.75806    0.42322    1.000
    N2374    N        0.36398    0.91397    0.37779    1.000
    Si2375   Si       0.39975    0.92756    0.44348    1.000
    N2376    N        0.39057    0.88603    0.46335    1.000
    N2377    N        0.39193    0.00097    0.48967    1.000
    Si2378   Si       0.38875    0.00321    0.39947    1.000
    Si2379   Si       0.35995    0.98873    0.46106    1.000
    N2380    N        0.35873    0.94709    0.45469    1.000
    Si2381   Si       0.38437    0.79217    0.61062    1.000
    N2382    N        0.35709    0.79927    0.57946    1.000
    N2383    N        0.38119    0.86440    0.59956    1.000
    N2384    N        0.36403    0.76387    0.51873    1.000
    Si2385   Si       0.34494    0.84078    0.58581    1.000
    N2386    N        0.39538    0.99429    0.60454    1.000
    Si2387   Si       0.38501    0.92741    0.56619    1.000
    N2388    N        0.38446    0.89826    0.53248    1.000
    N2389    N        0.39036    0.96449    0.54671    1.000
    Si2390   Si       0.38300    0.00389    0.56432    1.000
    N2391    N        0.37234    0.81237    0.64662    1.000
    N2392    N        0.36184    0.77604    0.74019    1.000
    N2393    N        0.38949    0.83756    0.70496    1.000
    Si2394   Si       0.36143    0.86952    0.71008    1.000
    Si2395   Si       0.34817    0.96378    0.69541    1.000
    N2396    N        0.35780    0.00475    0.71828    1.000
    N2397    N        0.38902    0.95273    0.68637    1.000
    N2398    N        0.38234    0.90371    0.72727    1.000
    Si2399   Si       0.36446    0.79797    0.83103    1.000
    N2400    N        0.35466    0.84002    0.84501    1.000
    N2401    N        0.39207    0.80273    0.79924    1.000
    Si2402   Si       0.39845    0.77590    0.76468    1.000
    N2403    N        0.39241    0.78430    0.86148    1.000
    Si2404   Si       0.38839    0.85598    0.86375    1.000
    N2405    N        0.35661    0.90178    0.79397    1.000
    N2406    N        0.37227    0.96816    0.83550    1.000
    Si2407   Si       0.37835    0.92680    0.82428    1.000
    N2408    N        0.38636    0.89911    0.85762    1.000
    Si2409   Si       0.39195    0.90059    0.76767    1.000
    Si2410   Si       0.36847    0.99812    0.80400    1.000
    Si2411   Si       0.35208    0.97952    0.87108    1.000
    N2412    N        0.40088    0.99079    0.77611    1.000
    Si2413   Si       0.37625    0.81437    0.93065    1.000
    N2414    N        0.37338    0.77004    0.92509    1.000
    N2415    N        0.39057    0.82288    0.96954    1.000
    N2416    N        0.34615    0.86768    0.98978    1.000
    N2417    N        0.37653    0.89200    0.92991    1.000
    Si2418   Si       0.37695    0.91823    0.89523    1.000
    N2419    N        0.36869    0.00223    0.90484    1.000
    N2420    N        0.38856    0.96801    0.96301    1.000
    N2421    N        0.34092    0.93159    0.99800    1.000
    N2422    N        0.43648    0.09174    0.09833    1.000
    N2423    N        0.42400    0.04566    0.04128    1.000
    Si2424   Si       0.42016    0.08700    0.05893    1.000
    N2425    N        0.45169    0.10401    0.03242    1.000
    Si2426   Si       0.40725    0.01246    0.01341    1.000
    Si2427   Si       0.45761    0.12794    0.10845    1.000
    N2428    N        0.43069    0.16024    0.10485    1.000
    Si2429   Si       0.41946    0.19647    0.07895    1.000
    N2430    N        0.42966    0.19073    0.03742    1.000
    N2431    N        0.43479    0.23402    0.09297    1.000
    Si2432   Si       0.41547    0.06656    0.12720    1.000
    N2433    N        0.43325    0.02781    0.13431    1.000
    N2434    N        0.43641    0.10802    0.21893    1.000
    Si2435   Si       0.44789    0.02948    0.17670    1.000
    N2436    N        0.41480    0.03998    0.20406    1.000
    N2437    N        0.42008    0.08996    0.16300    1.000
    Si2438   Si       0.40628    0.08195    0.20266    1.000
    Si2439   Si       0.40814    0.24818    0.12778    1.000
    N2440    N        0.40633    0.15955    0.18388    1.000
    Si2441   Si       0.40763    0.24469    0.23621    1.000
    N2442    N        0.44459    0.17739    0.23304    1.000
    Si2443   Si       0.41827    0.14668    0.22297    1.000
    N2444    N        0.44499    0.24200    0.21590    1.000
    N2445    N        0.40815    0.21154    0.14892    1.000
    Si2446   Si       0.43803    0.17434    0.15344    1.000
    N2447    N        0.43969    0.11027    0.30151    1.000
    N2448    N        0.44853    0.03793    0.28685    1.000
    Si2449   Si       0.42844    0.06323    0.37149    1.000
    Si2450   Si       0.39870    0.11759    0.29712    1.000
    Si2451   Si       0.42270    0.18293    0.27036    1.000
    N2452    N        0.40870    0.22442    0.33545    1.000
    Si2453   Si       0.45056    0.21886    0.32623    1.000
    N2454    N        0.45430    0.19295    0.36075    1.000
    N2455    N        0.40042    0.22146    0.27110    1.000
    N2456    N        0.43465    0.12118    0.46047    1.000
    N2457    N        0.42427    0.02688    0.39578    1.000
    N2458    N        0.41597    0.09902    0.39050    1.000
    N2459    N        0.44304    0.05080    0.48692    1.000
    Si2460   Si       0.43090    0.12722    0.41704    1.000
    N2461    N        0.40807    0.16588    0.42406    1.000
    N2462    N        0.45719    0.18515    0.47258    1.000
    Si2463   Si       0.42198    0.16302    0.46584    1.000
    Si2464   Si       0.41410    0.20458    0.37433    1.000
    N2465    N        0.41982    0.24261    0.48438    1.000
    N2466    N        0.42612    0.23575    0.40485    1.000
    N2467    N        0.41253    0.02920    0.54476    1.000
    N2468    N        0.44899    0.11169    0.57154    1.000
    Si2469   Si       0.44967    0.02268    0.56786    1.000
    N2470    N        0.44465    0.03599    0.60960    1.000
    Si2471   Si       0.41086    0.13057    0.56151    1.000
    Si2472   Si       0.40280    0.04228    0.50388    1.000
    N2473    N        0.41646    0.17289    0.56309    1.000
    Si2474   Si       0.42967    0.21164    0.57529    1.000
    N2475    N        0.45434    0.22664    0.54201    1.000
    Si2476   Si       0.45534    0.21833    0.49904    1.000
    N2477    N        0.45622    0.20630    0.60973    1.000
    N2478    N        0.40346    0.24207    0.59461    1.000
    Si2479   Si       0.40496    0.03607    0.62474    1.000
    N2480    N        0.41797    0.08232    0.64475    1.000
    Si2481   Si       0.43345    0.11209    0.67287    1.000
    N2482    N        0.40689    0.11558    0.70806    1.000
    N2483    N        0.44158    0.14310    0.64060    1.000
    N2484    N        0.45628    0.16354    0.73486    1.000
    N2485    N        0.40875    0.19961    0.66258    1.000
    N2486    N        0.42681    0.24578    0.73742    1.000
    Si2487   Si       0.41860    0.14105    0.74117    1.000
    Si2488   Si       0.44800    0.18618    0.64676    1.000
    N2489    N        0.44152    0.05740    0.79795    1.000
    N2490    N        0.42394    0.10892    0.76916    1.000
    Si2491   Si       0.44500    0.10671    0.82240    1.000
    Si2492   Si       0.45111    0.03090    0.83095    1.000
    N2493    N        0.42349    0.03821    0.86413    1.000
    N2494    N        0.45789    0.09978    0.86420    1.000
    N2495    N        0.42065    0.20430    0.86019    1.000
    N2496    N        0.43739    0.20208    0.78953    1.000
    N2497    N        0.44691    0.15012    0.82816    1.000
    Si2498   Si       0.41797    0.18234    0.82420    1.000
    Si2499   Si       0.40603    0.21545    0.76113    1.000
    Si2500   Si       0.40427    0.07051    0.96670    1.000
    N2501    N        0.44819    0.06887    0.97564    1.000
    Si2502   Si       0.43642    0.03906    0.90768    1.000
    N2503    N        0.43259    0.11542    0.93018    1.000
    Si2504   Si       0.43583    0.12958    0.88800    1.000
    Si2505   Si       0.41442    0.13958    0.96316    1.000
    N2506    N        0.44841    0.16567    0.97061    1.000
    Si2507   Si       0.43743    0.25188    0.91506    1.000
    Si2508   Si       0.45898    0.19779    0.87889    1.000
    N2509    N        0.43815    0.28825    0.01756    1.000
    N2510    N        0.43153    0.31476    0.07899    1.000
    Si2511   Si       0.41122    0.30960    0.04154    1.000
    Si2512   Si       0.41033    0.35319    0.09821    1.000
    N2513    N        0.43823    0.37999    0.07526    1.000
    Si2514   Si       0.42594    0.38424    0.03298    1.000
    Si2515   Si       0.44535    0.42062    0.09187    1.000
    Si2516   Si       0.43690    0.45288    0.03149    1.000
    N2517    N        0.43359    0.49304    0.04957    1.000
    N2518    N        0.41471    0.44726    0.10649    1.000
    N2519    N        0.40602    0.42224    0.03085    1.000
    N2520    N        0.45915    0.38990    0.00488    1.000
    Si2521   Si       0.42101    0.32106    0.23619    1.000
    N2522    N        0.44454    0.34670    0.12911    1.000
    Si2523   Si       0.42758    0.31598    0.15445    1.000
    N2524    N        0.44006    0.31138    0.19761    1.000
    N2525    N        0.44088    0.27473    0.14547    1.000
    Si2526   Si       0.45605    0.38256    0.15172    1.000
    Si2527   Si       0.45841    0.27224    0.18783    1.000
    N2528    N        0.42270    0.39715    0.17635    1.000
    Si2529   Si       0.45913    0.49307    0.20525    1.000
    Si2530   Si       0.43686    0.42652    0.20368    1.000
    N2531    N        0.40714    0.43397    0.23261    1.000
    N2532    N        0.44642    0.46058    0.17883    1.000
    Si2533   Si       0.43439    0.47300    0.13848    1.000
    Si2534   Si       0.42469    0.36004    0.29397    1.000
    N2535    N        0.44943    0.33506    0.26789    1.000
    Si2536   Si       0.42395    0.33319    0.35880    1.000
    N2537    N        0.45154    0.37949    0.32322    1.000
    N2538    N        0.41960    0.29096    0.36532    1.000
    N2539    N        0.40026    0.33692    0.32267    1.000
    N2540    N        0.44233    0.43588    0.28996    1.000
    Si2541   Si       0.45005    0.42182    0.32950    1.000
    N2542    N        0.41983    0.42499    0.36087    1.000
    N2543    N        0.40233    0.49410    0.34412    1.000
    Si2544   Si       0.43105    0.34031    0.42815    1.000
    N2545    N        0.41973    0.29748    0.43278    1.000
    Si2546   Si       0.43560    0.27909    0.46833    1.000
    N2547    N        0.41625    0.36044    0.39064    1.000
    Si2548   Si       0.40236    0.27298    0.40063    1.000
    Si2549   Si       0.45394    0.45061    0.42969    1.000
    N2550    N        0.44907    0.47806    0.39441    1.000
    Si2551   Si       0.41304    0.46645    0.37578    1.000
    Si2552   Si       0.41342    0.40388    0.47379    1.000
    N2553    N        0.45589    0.48101    0.46372    1.000
    N2554    N        0.42308    0.42113    0.43324    1.000
    Si2555   Si       0.40509    0.40131    0.39610    1.000
    Si2556   Si       0.41597    0.34475    0.57219    1.000
    Si2557   Si       0.43016    0.27614    0.60629    1.000
    N2558    N        0.40780    0.31143    0.59730    1.000
    N2559    N        0.45645    0.34288    0.55767    1.000
    Si2560   Si       0.41934    0.34683    0.50038    1.000
    N2561    N        0.46120    0.38178    0.61153    1.000
    N2562    N        0.44297    0.38296    0.50079    1.000
    N2563    N        0.44484    0.31228    0.49522    1.000
    N2564    N        0.41630    0.44151    0.49981    1.000
    N2565    N        0.45460    0.46373    0.59050    1.000
    Si2566   Si       0.41366    0.46957    0.60624    1.000
    Si2567   Si       0.43988    0.47695    0.50584    1.000
    N2568    N        0.41381    0.50671    0.52543    1.000
    N2569    N        0.42289    0.31165    0.69900    1.000
    N2570    N        0.42878    0.37324    0.66216    1.000
    Si2571   Si       0.45190    0.29475    0.67253    1.000
    N2572    N        0.42479    0.26833    0.65069    1.000
    Si2573   Si       0.40451    0.28028    0.72313    1.000
    N2574    N        0.40875    0.43247    0.62800    1.000
    N2575    N        0.41774    0.50256    0.63394    1.000
    Si2576   Si       0.41371    0.43990    0.72567    1.000
    N2577    N        0.42510    0.45767    0.68738    1.000
    Si2578   Si       0.42136    0.50269    0.67921    1.000
    Si2579   Si       0.41882    0.39034    0.62259    1.000
    Si2580   Si       0.41991    0.35376    0.84177    1.000
    N2581    N        0.42796    0.34626    0.75630    1.000
    N2582    N        0.45257    0.33043    0.83461    1.000
    N2583    N        0.41720    0.38557    0.81229    1.000
    Si2584   Si       0.43968    0.38534    0.77488    1.000
    Si2585   Si       0.42229    0.42082    0.84448    1.000
    N2586    N        0.44213    0.42353    0.75459    1.000
    Si2587   Si       0.41697    0.50461    0.76835    1.000
    N2588    N        0.45647    0.48836    0.76709    1.000
    N2589    N        0.45522    0.44084    0.82223    1.000
    N2590    N        0.42865    0.38428    0.87245    1.000
    N2591    N        0.40379    0.49069    0.80667    1.000
    N2592    N        0.42009    0.35421    0.94287    1.000
    N2593    N        0.43536    0.28208    0.88208    1.000
    Si2594   Si       0.43252    0.31617    0.92325    1.000
    N2595    N        0.44137    0.28160    0.94719    1.000
    Si2596   Si       0.44231    0.37616    0.91294    1.000
    Si2597   Si       0.43217    0.26045    0.98414    1.000
    N2598    N        0.43986    0.48529    0.92709    1.000
    N2599    N        0.45190    0.45440    0.99098    1.000
    Si2600   Si       0.44792    0.44890    0.90827    1.000
    N2601    N        0.45213    0.41329    0.93356    1.000
    N2602    N        0.41542    0.44895    0.87839    1.000
    Si2603   Si       0.43914    0.49019    0.97071    1.000
    Si2604   Si       0.42055    0.53416    0.05853    1.000
    N2605    N        0.41852    0.55183    0.01919    1.000
    N2606    N        0.43710    0.62550    0.10001    1.000
    Si2607   Si       0.44178    0.58479    0.11321    1.000
    N2608    N        0.44983    0.55499    0.08124    1.000
    Si2609   Si       0.45620    0.55853    0.99984    1.000
    Si2610   Si       0.42382    0.65501    0.01754    1.000
    N2611    N        0.43116    0.69976    0.02660    1.000
    N2612    N        0.42072    0.68466    0.08920    1.000
    N2613    N        0.44459    0.74566    0.08339    1.000
    Si2614   Si       0.40701    0.72512    0.09476    1.000
    Si2615   Si       0.45879    0.66668    0.10462    1.000
    Si2616   Si       0.45893    0.72230    0.04993    1.000
    Si2617   Si       0.41337    0.58162    0.20694    1.000
    N2618    N        0.42386    0.51544    0.21775    1.000
    N2619    N        0.40269    0.57956    0.13091    1.000
    N2620    N        0.45601    0.58238    0.19838    1.000
    N2621    N        0.40734    0.50813    0.14803    1.000
    N2622    N        0.40151    0.62003    0.19064    1.000
    N2623    N        0.43782    0.75016    0.19086    1.000
    N2624    N        0.41028    0.69059    0.19198    1.000
    N2625    N        0.45828    0.69188    0.14341    1.000
    Si2626   Si       0.42939    0.71585    0.16311    1.000
    Si2627   Si       0.41546    0.65249    0.21528    1.000
    N2628    N        0.45176    0.64109    0.23332    1.000
    Si2629   Si       0.40908    0.74434    0.23145    1.000
    Si2630   Si       0.42611    0.52562    0.32802    1.000
    Si2631   Si       0.41602    0.59304    0.29182    1.000
    N2632    N        0.43797    0.52048    0.28652    1.000
    Si2633   Si       0.41169    0.53214    0.25625    1.000
    N2634    N        0.41279    0.57597    0.25089    1.000
    N2635    N        0.40577    0.56452    0.32175    1.000
    N2636    N        0.45912    0.60446    0.29190    1.000
    N2637    N        0.43571    0.67052    0.29525    1.000
    N2638    N        0.42013    0.73660    0.32046    1.000
    Si2639   Si       0.44948    0.71215    0.29591    1.000
    N2640    N        0.44352    0.72743    0.25396    1.000
    Si2641   Si       0.40799    0.57982    0.41704    1.000
    N2642    N        0.44257    0.60351    0.43225    1.000
    N2643    N        0.41422    0.53780    0.41392    1.000
    N2644    N        0.44863    0.55195    0.47886    1.000
    Si2645   Si       0.45054    0.52058    0.39598    1.000
    Si2646   Si       0.43131    0.74452    0.45729    1.000
    N2647    N        0.42423    0.66084    0.39111    1.000
    N2648    N        0.43345    0.66718    0.46198    1.000
    N2649    N        0.40856    0.72248    0.42871    1.000
    Si2650   Si       0.44657    0.64556    0.42479    1.000
    Si2651   Si       0.42289    0.70335    0.38942    1.000
    Si2652   Si       0.42439    0.54817    0.51424    1.000
    Si2653   Si       0.42221    0.59249    0.57461    1.000
    N2654    N        0.44493    0.57414    0.54377    1.000
    N2655    N        0.44384    0.57884    0.60998    1.000
    N2656    N        0.42122    0.63608    0.56835    1.000
    N2657    N        0.44800    0.75131    0.55874    1.000
    N2658    N        0.44509    0.68750    0.59266    1.000
    Si2659   Si       0.40453    0.67482    0.57819    1.000
    Si2660   Si       0.45751    0.72832    0.59591    1.000
    Si2661   Si       0.45575    0.72578    0.52551    1.000
    N2662    N        0.42405    0.73298    0.49798    1.000
    N2663    N        0.44703    0.60914    0.74135    1.000
    Si2664   Si       0.42858    0.59851    0.64664    1.000
    N2665    N        0.41977    0.55957    0.66044    1.000
    Si2666   Si       0.44244    0.53890    0.62832    1.000
    N2667    N        0.45779    0.51612    0.69981    1.000
    N2668    N        0.41741    0.69961    0.67331    1.000
    Si2669   Si       0.41070    0.73657    0.65312    1.000
    N2670    N        0.45052    0.74337    0.63723    1.000
    N2671    N        0.44311    0.58521    0.80561    1.000
    Si2672   Si       0.45088    0.57254    0.76449    1.000
    N2673    N        0.41544    0.54422    0.75730    1.000
    Si2674   Si       0.41062    0.63100    0.75421    1.000
    N2675    N        0.41676    0.52296    0.86808    1.000
    Si2676   Si       0.39899    0.58212    0.81341    1.000
    N2677    N        0.41435    0.66600    0.78012    1.000
    Si2678   Si       0.45181    0.67165    0.80563    1.000
    N2679    N        0.44471    0.70996    0.83087    1.000
    N2680    N        0.41446    0.73847    0.77810    1.000
    N2681    N        0.44771    0.64857    0.84752    1.000
    Si2682   Si       0.45432    0.73238    0.79594    1.000
    Si2683   Si       0.45037    0.68809    0.86804    1.000
    Si2684   Si       0.42735    0.62032    0.87536    1.000
    Si2685   Si       0.44688    0.54990    0.88496    1.000
    N2686    N        0.42105    0.55196    0.92017    1.000
    Si2687   Si       0.41405    0.58679    0.94721    1.000
    N2688    N        0.41413    0.61885    0.91701    1.000
    N2689    N        0.45029    0.59145    0.97259    1.000
    Si2690   Si       0.40959    0.51157    0.91015    1.000
    N2691    N        0.41829    0.68133    0.89753    1.000
    N2692    N        0.40468    0.65542    0.97619    1.000
    Si2693   Si       0.42495    0.65803    0.93614    1.000
    N2694    N        0.43547    0.80046    0.01997    1.000
    N2695    N        0.43323    0.86557    0.04522    1.000
    N2696    N        0.41842    0.80936    0.08999    1.000
    Si2697   Si       0.41558    0.82573    0.05138    1.000
    Si2698   Si       0.45474    0.78596    0.09552    1.000
    Si2699   Si       0.42793    0.99035    0.11108    1.000
    N2700    N        0.41359    0.92362    0.01002    1.000
    Si2701   Si       0.40792    0.90194    0.04721    1.000
    N2702    N        0.40739    0.91860    0.08739    1.000
    N2703    N        0.44577    0.99603    0.00078    1.000
    N2704    N        0.45516    0.98987    0.07552    1.000
    Si2705   Si       0.44036    0.78929    0.16880    1.000
    N2706    N        0.44298    0.81459    0.20544    1.000
    N2707    N        0.40739    0.87416    0.19901    1.000
    N2708    N        0.40254    0.81311    0.15871    1.000
    Si2709   Si       0.40306    0.83175    0.19941    1.000
    N2710    N        0.40786    0.98675    0.24498    1.000
    Si2711   Si       0.41043    0.94345    0.24161    1.000
    N2712    N        0.44268    0.96050    0.13812    1.000
    Si2713   Si       0.44469    0.89464    0.19610    1.000
    Si2714   Si       0.41195    0.95251    0.16719    1.000
    N2715    N        0.43347    0.93739    0.20404    1.000
    Si2716   Si       0.42584    0.81017    0.27740    1.000
    Si2717   Si       0.42972    0.77425    0.34489    1.000
    N2718    N        0.41323    0.80617    0.31905    1.000
    N2719    N        0.40811    0.85108    0.26497    1.000
    N2720    N        0.41595    0.85055    0.36530    1.000
    N2721    N        0.45542    0.87204    0.30923    1.000
    Si2722   Si       0.44055    0.87940    0.26832    1.000
    Si2723   Si       0.44525    0.87696    0.35114    1.000
    N2724    N        0.42713    0.92075    0.27327    1.000
    N2725    N        0.42756    0.91794    0.34624    1.000
    Si2726   Si       0.44765    0.93552    0.31013    1.000
    N2727    N        0.44395    0.97788    0.30348    1.000
    Si2728   Si       0.41799    0.00645    0.28145    1.000
    Si2729   Si       0.40873    0.82365    0.40096    1.000
    N2730    N        0.44585    0.83473    0.42218    1.000
    N2731    N        0.41328    0.78102    0.38593    1.000
    N2732    N        0.41617    0.78561    0.45967    1.000
    Si2733   Si       0.45576    0.80257    0.44763    1.000
    N2734    N        0.42178    0.93726    0.48435    1.000
    N2735    N        0.43346    0.91000    0.41831    1.000
    N2736    N        0.40534    0.96494    0.41183    1.000
    Si2737   Si       0.43389    0.93781    0.38742    1.000
    N2738    N        0.42357    0.80574    0.59810    1.000
    N2739    N        0.41824    0.80973    0.52508    1.000
    Si2740   Si       0.43981    0.79271    0.56006    1.000
    N2741    N        0.45399    0.86644    0.61171    1.000
    Si2742   Si       0.45372    0.83214    0.51257    1.000
    N2743    N        0.45055    0.87553    0.50579    1.000
    Si2744   Si       0.45613    0.82401    0.62188    1.000
    Si2745   Si       0.42843    0.96582    0.60870    1.000
    N2746    N        0.41374    0.92589    0.60038    1.000
    Si2747   Si       0.41299    0.97180    0.51183    1.000
    N2748    N        0.45347    0.98594    0.50957    1.000
    Si2749   Si       0.41396    0.88652    0.61708    1.000
    Si2750   Si       0.41321    0.89701    0.49935    1.000
    N2751    N        0.45822    0.98272    0.57780    1.000
    N2752    N        0.44308    0.81569    0.66304    1.000
    Si2753   Si       0.42066    0.84136    0.73313    1.000
    Si2754   Si       0.40275    0.80574    0.67837    1.000
    N2755    N        0.45641    0.85755    0.71595    1.000
    N2756    N        0.42791    0.79737    0.74229    1.000
    N2757    N        0.39790    0.76311    0.68558    1.000
    Si2758   Si       0.41090    0.91573    0.69452    1.000
    N2759    N        0.44283    0.97347    0.64763    1.000
    N2760    N        0.43254    0.99794    0.71493    1.000
    Si2761   Si       0.41462    0.98813    0.67676    1.000
    N2762    N        0.44798    0.92441    0.71340    1.000
    N2763    N        0.40842    0.89234    0.65978    1.000
    Si2764   Si       0.42075    0.83521    0.80258    1.000
    N2765    N        0.42417    0.84208    0.84509    1.000
    N2766    N        0.40816    0.86041    0.76999    1.000
    N2767    N        0.46157    0.82762    0.79049    1.000
    N2768    N        0.45137    0.98603    0.82545    1.000
    Si2769   Si       0.43216    0.96634    0.79272    1.000
    N2770    N        0.41202    0.92748    0.79594    1.000
    N2771    N        0.40284    0.83624    0.90299    1.000
    Si2772   Si       0.42695    0.80371    0.87787    1.000
    N2773    N        0.43640    0.86915    0.96545    1.000
    Si2774   Si       0.41560    0.86971    0.92743    1.000
    Si2775   Si       0.43677    0.82695    0.98293    1.000
    N2776    N        0.45136    0.79323    0.96005    1.000
    N2777    N        0.43478    0.75809    0.89652    1.000
    N2778    N        0.44578    0.88478    0.89842    1.000
    Si2779   Si       0.44183    0.75938    0.98981    1.000
    Si2780   Si       0.40196    0.97932    0.92314    1.000
    Si2781   Si       0.44556    0.90836    0.98392    1.000
    N2782    N        0.41033    0.94544    0.89926    1.000
    Si2783   Si       0.45042    0.92827    0.90524    1.000
    N2784    N        0.43930    0.00109    0.92759    1.000
    Si2785   Si       0.45846    0.98000    0.96212    1.000
    N2786    N        0.48994    0.03914    0.03135    1.000
    Si2787   Si       0.48898    0.12514    0.03799    1.000
    N2788    N        0.49256    0.12620    0.08255    1.000
    Si2789   Si       0.45776    0.06539    0.01691    1.000
    N2790    N        0.49372    0.16623    0.02245    1.000
    Si2791   Si       0.45845    0.18798    0.00724    1.000
    N2792    N        0.47809    0.06163    0.17447    1.000
    N2793    N        0.50903    0.11183    0.18958    1.000
    Si2794   Si       0.46144    0.10221    0.18174    1.000
    N2795    N        0.46507    0.13572    0.15180    1.000
    Si2796   Si       0.47002    0.20675    0.21471    1.000
    Si2797   Si       0.50633    0.21285    0.15180    1.000
    N2798    N        0.50721    0.19631    0.23363    1.000
    N2799    N        0.50197    0.24473    0.12317    1.000
    N2800    N        0.47039    0.19947    0.17182    1.000
    Si2801   Si       0.51130    0.13779    0.15442    1.000
    Si2802   Si       0.49797    0.03847    0.35922    1.000
    N2803    N        0.50771    0.07695    0.28878    1.000
    N2804    N        0.46475    0.06557    0.34633    1.000
    Si2805   Si       0.46472    0.07497    0.30263    1.000
    Si2806   Si       0.49966    0.18783    0.27717    1.000
    N2807    N        0.51548    0.15251    0.29578    1.000
    N2808    N        0.45878    0.19234    0.29222    1.000
    Si2809   Si       0.45919    0.09022    0.47915    1.000
    Si2810   Si       0.50219    0.11872    0.42697    1.000
    N2811    N        0.49049    0.02909    0.39971    1.000
    N2812    N        0.48883    0.08202    0.44738    1.000
    Si2813   Si       0.47055    0.01923    0.48623    1.000
    Si2814   Si       0.51394    0.05792    0.41957    1.000
    N2815    N        0.51244    0.02445    0.49019    1.000
    N2816    N        0.49459    0.20500    0.41914    1.000
    Si2817   Si       0.48381    0.17659    0.38527    1.000
    Si2818   Si       0.50111    0.19028    0.46045    1.000
    N2819    N        0.47142    0.13983    0.40428    1.000
    Si2820   Si       0.46739    0.24024    0.41807    1.000
    N2821    N        0.51748    0.14404    0.46010    1.000
    N2822    N        0.48166    0.04478    0.54903    1.000
    Si2823   Si       0.48137    0.08856    0.55191    1.000
    N2824    N        0.48332    0.10557    0.51076    1.000
    Si2825   Si       0.46822    0.12406    0.61082    1.000
    Si2826   Si       0.51798    0.13210    0.50324    1.000
    N2827    N        0.50005    0.21851    0.49909    1.000
    N2828    N        0.49645    0.15522    0.59917    1.000
    Si2829   Si       0.49736    0.19805    0.59900    1.000
    N2830    N        0.51628    0.22474    0.56782    1.000
    Si2831   Si       0.48652    0.25400    0.55721    1.000
    N2832    N        0.52011    0.16191    0.53627    1.000
    N2833    N        0.48999    0.09003    0.62556    1.000
    N2834    N        0.47164    0.11346    0.69172    1.000
    N2835    N        0.48941    0.04406    0.67589    1.000
    Si2836   Si       0.47875    0.04875    0.63365    1.000
    Si2837   Si       0.49724    0.07904    0.70083    1.000
    N2838    N        0.48973    0.06662    0.74261    1.000
    Si2839   Si       0.48431    0.15294    0.70448    1.000
    N2840    N        0.48381    0.18319    0.67340    1.000
    N2841    N        0.48932    0.22416    0.74364    1.000
    Si2842   Si       0.46804    0.25923    0.73442    1.000
    N2843    N        0.48298    0.10229    0.79784    1.000
    N2844    N        0.49034    0.04410    0.84661    1.000
    N2845    N        0.51355    0.00967    0.78773    1.000
    Si2846   Si       0.45734    0.08012    0.76704    1.000
    Si2847   Si       0.47212    0.19140    0.76337    1.000
    N2848    N        0.48676    0.20297    0.84583    1.000
    Si2849   Si       0.49014    0.16505    0.82597    1.000
    N2850    N        0.50463    0.17270    0.78600    1.000
    Si2851   Si       0.51334    0.23616    0.84902    1.000
    Si2852   Si       0.49067    0.07272    0.87915    1.000
    N2853    N        0.47781    0.05830    0.91777    1.000
    N2854    N        0.49513    0.11971    0.95489    1.000
    Si2855   Si       0.50893    0.03366    0.93770    1.000
    Si2856   Si       0.46531    0.09212    0.94379    1.000
    Si2857   Si       0.51307    0.22210    0.92024    1.000
    N2858    N        0.51601    0.18053    0.93286    1.000
    Si2859   Si       0.48033    0.15892    0.94191    1.000
    Si2860   Si       0.50353    0.24542    0.98876    1.000
    N2861    N        0.46401    0.22899    0.99032    1.000
    N2862    N        0.47112    0.22755    0.90900    1.000
    N2863    N        0.52140    0.25170    0.95089    1.000
    N2864    N        0.46206    0.16110    0.90159    1.000
    Si2865   Si       0.47598    0.29446    0.03518    1.000
    N2866    N        0.47924    0.33670    0.04356    1.000
    N2867    N        0.50737    0.28587    0.00546    1.000
    N2868    N        0.50647    0.35118    0.10349    1.000
    N2869    N        0.48641    0.27174    0.06997    1.000
    Si2870   Si       0.49490    0.37055    0.02028    1.000
    Si2871   Si       0.46659    0.34246    0.08455    1.000
    Si2872   Si       0.46442    0.26297    0.10673    1.000
    Si2873   Si       0.51094    0.43370    0.05791    1.000
    N2874    N        0.46709    0.44339    0.06132    1.000
    Si2875   Si       0.47033    0.48671    0.07498    1.000
    N2876    N        0.47133    0.47974    0.11763    1.000
    N2877    N        0.51616    0.39279    0.04917    1.000
    N2878    N        0.50774    0.34104    0.23546    1.000
    N2879    N        0.50018    0.27966    0.19517    1.000
    N2880    N        0.49211    0.36746    0.17164    1.000
    Si2881   Si       0.50121    0.37749    0.21366    1.000
    N2882    N        0.47017    0.40833    0.22575    1.000
    N2883    N        0.47052    0.41478    0.12942    1.000
    Si2884   Si       0.49919    0.44776    0.13277    1.000
    N2885    N        0.47409    0.47705    0.24157    1.000
    Si2886   Si       0.49166    0.33009    0.27480    1.000
    N2887    N        0.47044    0.32501    0.35629    1.000
    Si2888   Si       0.48946    0.35915    0.33509    1.000
    N2889    N        0.50762    0.28790    0.27150    1.000
    Si2890   Si       0.51019    0.26213    0.30587    1.000
    Si2891   Si       0.46310    0.28282    0.35591    1.000
    N2892    N        0.51553    0.35143    0.30318    1.000
    N2893    N        0.46937    0.25681    0.32353    1.000
    Si2894   Si       0.47332    0.43723    0.25881    1.000
    N2895    N        0.49838    0.49084    0.30848    1.000
    N2896    N        0.49146    0.43476    0.33935    1.000
    N2897    N        0.51395    0.42790    0.27454    1.000
    Si2898   Si       0.47624    0.50676    0.27360    1.000
    N2899    N        0.50468    0.37522    0.37172    1.000
    N2900    N        0.48408    0.26571    0.38825    1.000
    N2901    N        0.47359    0.35304    0.42860    1.000
    Si2902   Si       0.49377    0.33718    0.39313    1.000
    N2903    N        0.47487    0.26133    0.45598    1.000
    Si2904   Si       0.50478    0.26145    0.48739    1.000
    N2905    N        0.50299    0.40726    0.47707    1.000
    Si2906   Si       0.49861    0.39044    0.43817    1.000
    N2907    N        0.48594    0.42497    0.41493    1.000
    Si2908   Si       0.50665    0.41847    0.37607    1.000
    N2909    N        0.49630    0.28038    0.52521    1.000
    Si2910   Si       0.48496    0.37020    0.57703    1.000
    Si2911   Si       0.47699    0.32047    0.52585    1.000
    Si2912   Si       0.50041    0.30588    0.61136    1.000
    N2913    N        0.50494    0.35041    0.51368    1.000
    N2914    N        0.47174    0.27732    0.59132    1.000
    N2915    N        0.51626    0.34368    0.59417    1.000
    Si2916   Si       0.48638    0.38869    0.51197    1.000
    N2917    N        0.49133    0.40616    0.55164    1.000
    Si2918   Si       0.48246    0.44790    0.56108    1.000
    N2919    N        0.47941    0.47444    0.52630    1.000
    Si2920   Si       0.48818    0.47781    0.61738    1.000
    N2921    N        0.51550    0.46437    0.58765    1.000
    Si2922   Si       0.51763    0.49321    0.52012    1.000
    N2923    N        0.48107    0.27698    0.69804    1.000
    N2924    N        0.47532    0.31901    0.64523    1.000
    N2925    N        0.49865    0.33559    0.72671    1.000
    Si2926   Si       0.46868    0.36170    0.65063    1.000
    Si2927   Si       0.51864    0.29779    0.71326    1.000
    Si2928   Si       0.52081    0.36859    0.70995    1.000
    N2929    N        0.49933    0.45284    0.65057    1.000
    N2930    N        0.49804    0.38483    0.67409    1.000
    N2931    N        0.51074    0.48302    0.73033    1.000
    N2932    N        0.49733    0.27777    0.85382    1.000
    N2933    N        0.47378    0.28688    0.76674    1.000
    N2934    N        0.48048    0.37159    0.78146    1.000
    Si2935   Si       0.46993    0.33247    0.76125    1.000
    Si2936   Si       0.51342    0.27807    0.78395    1.000
    Si2937   Si       0.46881    0.30749    0.86645    1.000
    Si2938   Si       0.49738    0.44683    0.83509    1.000
    N2939    N        0.50738    0.44154    0.78805    1.000
    N2940    N        0.51334    0.41130    0.85303    1.000
    Si2941   Si       0.46487    0.44916    0.77957    1.000
    Si2942   Si       0.51469    0.39831    0.77916    1.000
    Si2943   Si       0.50774    0.34334    0.90448    1.000
    N2944    N        0.46468    0.33659    0.90200    1.000
    N2945    N        0.48676    0.45550    0.89021    1.000
    N2946    N        0.51290    0.38343    0.91783    1.000
    Si2947   Si       0.51258    0.42055    0.89482    1.000
    Si2948   Si       0.50625    0.49472    0.88158    1.000
    Si2949   Si       0.46982    0.41992    0.97402    1.000
    N2950    N        0.51334    0.41909    0.97725    1.000
    N2951    N        0.49400    0.56261    0.01957    1.000
    Si2952   Si       0.49122    0.55381    0.06163    1.000
    N2953    N        0.50400    0.51136    0.06526    1.000
    Si2954   Si       0.51079    0.60428    0.11700    1.000
    N2955    N        0.49085    0.69614    0.06766    1.000
    Si2956   Si       0.49990    0.66594    0.03393    1.000
    N2957    N        0.46529    0.64242    0.01748    1.000
    N2958    N        0.49586    0.64667    0.11264    1.000
    N2959    N        0.50585    0.69433    0.00062    1.000
    N2960    N        0.47576    0.75279    0.01949    1.000
    Si2961   Si       0.51462    0.73691    0.00524    1.000
    Si2962   Si       0.48162    0.61398    0.21453    1.000
    Si2963   Si       0.48367    0.56045    0.17389    1.000
    N2964    N        0.47967    0.58186    0.13620    1.000
    N2965    N        0.48784    0.51711    0.18184    1.000
    N2966    N        0.50276    0.64115    0.18694    1.000
    Si2967   Si       0.49297    0.67881    0.16708    1.000
    Si2968   Si       0.47012    0.73715    0.22153    1.000
    N2969    N        0.48903    0.70607    0.20104    1.000
    Si2970   Si       0.49914    0.52373    0.33851    1.000
    Si2971   Si       0.49305    0.58018    0.28117    1.000
    N2972    N        0.49496    0.54375    0.25699    1.000
    N2973    N        0.50825    0.56375    0.32035    1.000
    N2974    N        0.50983    0.60570    0.24745    1.000
    N2975    N        0.45876    0.53022    0.35511    1.000
    N2976    N        0.48832    0.72342    0.31152    1.000
    N2977    N        0.50361    0.66386    0.28014    1.000
    Si2978   Si       0.46338    0.64560    0.27549    1.000
    Si2979   Si       0.50415    0.75585    0.33747    1.000
    N2980    N        0.50714    0.57993    0.45766    1.000
    Si2981   Si       0.47587    0.51983    0.46488    1.000
    N2982    N        0.48279    0.53077    0.42292    1.000
    Si2983   Si       0.46537    0.59019    0.46575    1.000
    N2984    N        0.51123    0.59141    0.38951    1.000
    N2985    N        0.50961    0.52215    0.48960    1.000
    Si2986   Si       0.51340    0.55995    0.41931    1.000
    N2987    N        0.46759    0.61783    0.49885    1.000
    Si2988   Si       0.49496    0.73866    0.41052    1.000
    N2989    N        0.48899    0.65568    0.41996    1.000
    N2990    N        0.46314    0.71962    0.38897    1.000
    N2991    N        0.50655    0.67219    0.48331    1.000
    Si2992   Si       0.46554    0.66113    0.49188    1.000
    Si2993   Si       0.48048    0.59933    0.53556    1.000
    N2994    N        0.49075    0.63034    0.56714    1.000
    Si2995   Si       0.45925    0.65854    0.56461    1.000
    N2996    N        0.49343    0.73585    0.50637    1.000
    N2997    N        0.50061    0.73772    0.60119    1.000
    N2998    N        0.45452    0.68237    0.52787    1.000
    N2999    N        0.48124    0.52045    0.62190    1.000
    Si3000   Si       0.47875    0.51076    0.73798    1.000
    Si3001   Si       0.50441    0.60632    0.66469    1.000
    N3002    N        0.51083    0.62375    0.70526    1.000
    Si3003   Si       0.46738    0.62896    0.71102    1.000
    N3004    N        0.46010    0.61464    0.67094    1.000
    Si3005   Si       0.51454    0.54603    0.62312    1.000
    N3006    N        0.51753    0.63257    0.63461    1.000
    N3007    N        0.46366    0.67158    0.71692    1.000
    N3008    N        0.48730    0.73077    0.71056    1.000
    Si3009   Si       0.49276    0.73949    0.64318    1.000
    Si3010   Si       0.49160    0.69760    0.73604    1.000
    N3011    N        0.49448    0.69720    0.65595    1.000
    Si3012   Si       0.46149    0.69947    0.68527    1.000
    Si3013   Si       0.47158    0.61175    0.82778    1.000
    N3014    N        0.51299    0.59461    0.83805    1.000
    N3015    N        0.48707    0.54986    0.75588    1.000
    N3016    N        0.48594    0.64330    0.79953    1.000
    N3017    N        0.47716    0.69906    0.77756    1.000
    Si3018   Si       0.51674    0.72597    0.85540    1.000
    Si3019   Si       0.50205    0.57486    0.87461    1.000
    N3020    N        0.48667    0.53358    0.87812    1.000
    Si3021   Si       0.47627    0.62681    0.97750    1.000
    N3022    N        0.46506    0.52239    0.97896    1.000
    N3023    N        0.51694    0.61980    0.96834    1.000
    N3024    N        0.45919    0.59042    0.87263    1.000
    N3025    N        0.49194    0.69653    0.87853    1.000
    N3026    N        0.46327    0.73064    0.95743    1.000
    Si3027   Si       0.48934    0.69475    0.95857    1.000
    N3028    N        0.46572    0.65883    0.94970    1.000
    N3029    N        0.48533    0.80090    0.06927    1.000
    Si3030   Si       0.47577    0.87038    0.03460    1.000
    Si3031   Si       0.48055    0.79565    0.02791    1.000
    N3032    N        0.50327    0.86730    0.06845    1.000
    N3033    N        0.48411    0.83598    0.00650    1.000
    N3034    N        0.48022    0.90684    0.01212    1.000
    N3035    N        0.49473    0.93417    0.10165    1.000
    N3036    N        0.50240    0.96954    0.03798    1.000
    Si3037   Si       0.49364    0.97248    0.08238    1.000
    Si3038   Si       0.47012    0.00033    0.03524    1.000
    Si3039   Si       0.51642    0.93173    0.01806    1.000
    Si3040   Si       0.47827    0.81647    0.23075    1.000
    N3041    N        0.47067    0.78644    0.13823    1.000
    N3042    N        0.49064    0.77297    0.22999    1.000
    Si3043   Si       0.51574    0.78151    0.13663    1.000
    N3044    N        0.46591    0.88013    0.23082    1.000
    Si3045   Si       0.47340    0.95642    0.20633    1.000
    Si3046   Si       0.50133    0.89914    0.24456    1.000
    Si3047   Si       0.47583    0.92978    0.13905    1.000
    N3048    N        0.46383    0.89196    0.15631    1.000
    N3049    N        0.46510    0.99763    0.19715    1.000
    N3050    N        0.50010    0.94259    0.17503    1.000
    N3051    N        0.49411    0.94259    0.24110    1.000
    Si3052   Si       0.48905    0.84710    0.29959    1.000
    N3053    N        0.47039    0.78261    0.34119    1.000
    N3054    N        0.46764    0.82204    0.27226    1.000
    N3055    N        0.51028    0.88136    0.28164    1.000
    N3056    N        0.48923    0.93408    0.32738    1.000
    Si3057   Si       0.50120    0.96368    0.35799    1.000
    Si3058   Si       0.47736    0.00397    0.29766    1.000
    N3059    N        0.50933    0.00622    0.27044    1.000
    N3060    N        0.49728    0.00193    0.33627    1.000
    N3061    N        0.47517    0.80764    0.48452    1.000
    N3062    N        0.49217    0.87710    0.44794    1.000
    Si3063   Si       0.49944    0.77007    0.48124    1.000
    N3064    N        0.47962    0.87925    0.37814    1.000
    N3065    N        0.47382    0.76093    0.44254    1.000
    Si3066   Si       0.46008    0.87467    0.41771    1.000
    N3067    N        0.46336    0.99531    0.44924    1.000
    N3068    N        0.46936    0.96567    0.38607    1.000
    N3069    N        0.49173    0.93409    0.48036    1.000
    Si3070   Si       0.48680    0.89299    0.48752    1.000
    Si3071   Si       0.45858    0.00151    0.40752    1.000
    Si3072   Si       0.45812    0.95875    0.47434    1.000
    N3073    N        0.47287    0.82054    0.54885    1.000
    N3074    N        0.49657    0.81136    0.60907    1.000
    Si3075   Si       0.51005    0.82424    0.56908    1.000
    Si3076   Si       0.49011    0.88891    0.60316    1.000
    N3077    N        0.49464    0.92156    0.57409    1.000
    Si3078   Si       0.49537    0.96520    0.57398    1.000
    N3079    N        0.50793    0.84011    0.66713    1.000
    N3080    N        0.48871    0.79821    0.72177    1.000
    Si3081   Si       0.47495    0.82707    0.69032    1.000
    Si3082   Si       0.51317    0.76647    0.70603    1.000
    N3083    N        0.51638    0.77121    0.66252    1.000
    Si3084   Si       0.46114    0.96640    0.72212    1.000
    Si3085   Si       0.47729    0.89379    0.72692    1.000
    N3086    N        0.50139    0.97426    0.70925    1.000
    N3087    N        0.51229    0.90456    0.70305    1.000
    Si3088   Si       0.49401    0.85480    0.79698    1.000
    N3089    N        0.48908    0.87038    0.83760    1.000
    N3090    N        0.47873    0.76552    0.78672    1.000
    Si3091   Si       0.51415    0.78358    0.80781    1.000
    N3092    N        0.51174    0.76916    0.84687    1.000
    Si3093   Si       0.46716    0.79610    0.75980    1.000
    Si3094   Si       0.46098    0.85577    0.86782    1.000
    N3095    N        0.49850    0.88617    0.76646    1.000
    Si3096   Si       0.50417    0.96876    0.78389    1.000
    Si3097   Si       0.48544    0.96853    0.84457    1.000
    N3098    N        0.50379    0.93912    0.81552    1.000
    Si3099   Si       0.50264    0.90989    0.84953    1.000
    N3100    N        0.46552    0.96575    0.76466    1.000
    N3101    N        0.52419    0.98959    0.85169    1.000
    N3102    N        0.50216    0.76595    0.91280    1.000
    Si3103   Si       0.50433    0.79497    0.88099    1.000
    N3104    N        0.46735    0.81647    0.88164    1.000
    Si3105   Si       0.46264    0.76138    0.92919    1.000
    N3106    N        0.50073    0.99600    0.95936    1.000
    N3107    N        0.47955    0.93823    0.87533    1.000
    N3108    N        0.45473    0.93749    0.95040    1.000
    N3109    N        0.56295    0.04009    0.02850    1.000
    Si3110   Si       0.53320    0.11254    0.09373    1.000
    N3111    N        0.53245    0.07226    0.08128    1.000
    Si3112   Si       0.54525    0.03694    0.10399    1.000
    Si3113   Si       0.52758    0.06146    0.03998    1.000
    N3114    N        0.51968    0.09960    0.02008    1.000
    N3115    N        0.55414    0.14521    0.07425    1.000
    Si3116   Si       0.54541    0.17879    0.10034    1.000
    Si3117   Si       0.53037    0.18671    0.03183    1.000
    N3118    N        0.52732    0.20593    0.07107    1.000
    N3119    N        0.53388    0.22045    0.00546    1.000
    Si3120   Si       0.52141    0.24792    0.08339    1.000
    N3121    N        0.57583    0.17769    0.02391    1.000
    N3122    N        0.57649    0.20414    0.11863    1.000
    Si3123   Si       0.57431    0.20761    0.99424    1.000
    Si3124   Si       0.54497    0.12145    0.21315    1.000
    N3125    N        0.54156    0.04265    0.14869    1.000
    N3126    N        0.54529    0.11489    0.13579    1.000
    N3127    N        0.53222    0.05371    0.22103    1.000
    N3128    N        0.57123    0.09276    0.19169    1.000
    Si3129   Si       0.52041    0.06724    0.18062    1.000
    Si3130   Si       0.54512    0.20064    0.21465    1.000
    N3131    N        0.53898    0.22395    0.17761    1.000
    N3132    N        0.55704    0.16048    0.19966    1.000
    N3133    N        0.51833    0.17505    0.13435    1.000
    N3134    N        0.54003    0.04475    0.35827    1.000
    N3135    N        0.55538    0.11902    0.33175    1.000
    Si3136   Si       0.53501    0.11171    0.29164    1.000
    Si3137   Si       0.55274    0.08748    0.36486    1.000
    N3138    N        0.55944    0.11618    0.25474    1.000
    Si3139   Si       0.52680    0.04626    0.26439    1.000
    N3140    N        0.56946    0.05243    0.27026    1.000
    Si3141   Si       0.53595    0.16303    0.33159    1.000
    Si3142   Si       0.56642    0.21534    0.29018    1.000
    N3143    N        0.52384    0.22090    0.29547    1.000
    N3144    N        0.57604    0.17969    0.31674    1.000
    N3145    N        0.52332    0.17959    0.36973    1.000
    N3146    N        0.57055    0.21362    0.24649    1.000
    Si3147   Si       0.54537    0.01533    0.46464    1.000
    N3148    N        0.52376    0.09494    0.39688    1.000
    N3149    N        0.55178    0.04942    0.43745    1.000
    N3150    N        0.57991    0.11164    0.44518    1.000
    N3151    N        0.57574    0.17093    0.40994    1.000
    N3152    N        0.54421    0.19580    0.45721    1.000
    N3153    N        0.55406    0.24072    0.39752    1.000
    Si3154   Si       0.53930    0.20118    0.40584    1.000
    Si3155   Si       0.56249    0.15474    0.44975    1.000
    Si3156   Si       0.56890    0.22426    0.47940    1.000
    N3157    N        0.55848    0.04347    0.54901    1.000
    N3158    N        0.55566    0.11282    0.50819    1.000
    Si3159   Si       0.56190    0.08789    0.54231    1.000
    Si3160   Si       0.52733    0.07606    0.60532    1.000
    N3161    N        0.52192    0.09966    0.56640    1.000
    Si3162   Si       0.51962    0.02514    0.53526    1.000
    N3163    N        0.51440    0.03585    0.61066    1.000
    Si3164   Si       0.54464    0.24137    0.59931    1.000
    Si3165   Si       0.52586    0.14304    0.57311    1.000
    N3166    N        0.56664    0.21663    0.52241    1.000
    N3167    N        0.56416    0.15355    0.59119    1.000
    Si3168   Si       0.52535    0.20372    0.53119    1.000
    N3169    N        0.56391    0.09187    0.62328    1.000
    N3170    N        0.53833    0.09481    0.70008    1.000
    N3171    N        0.54081    0.03181    0.72552    1.000
    Si3172   Si       0.56679    0.06520    0.71289    1.000
    Si3173   Si       0.51739    0.01206    0.69364    1.000
    N3174    N        0.54316    0.22369    0.69247    1.000
    Si3175   Si       0.52464    0.19376    0.66683    1.000
    Si3176   Si       0.55732    0.13544    0.69730    1.000
    Si3177   Si       0.57498    0.13398    0.63330    1.000
    N3178    N        0.54997    0.15718    0.66001    1.000
    N3179    N        0.52532    0.15827    0.71834    1.000
    Si3180   Si       0.53070    0.22828    0.73340    1.000
    N3181    N        0.52649    0.21129    0.62802    1.000
    N3182    N        0.54070    0.06576    0.79761    1.000
    N3183    N        0.56913    0.03732    0.84696    1.000
    Si3184   Si       0.52506    0.10771    0.80492    1.000
    Si3185   Si       0.52599    0.02733    0.82805    1.000
    Si3186   Si       0.55163    0.12274    0.86586    1.000
    Si3187   Si       0.52209    0.04441    0.76222    1.000
    N3188    N        0.55275    0.12725    0.77698    1.000
    N3189    N        0.52101    0.13541    0.83900    1.000
    N3190    N        0.55912    0.20359    0.75813    1.000
    Si3191   Si       0.53849    0.16489    0.76067    1.000
    Si3192   Si       0.56482    0.22838    0.79272    1.000
    N3193    N        0.52640    0.24352    0.80704    1.000
    N3194    N        0.53925    0.02375    0.90822    1.000
    Si3195   Si       0.52796    0.10138    0.97703    1.000
    N3196    N        0.53162    0.08842    0.88308    1.000
    Si3197   Si       0.56466    0.04047    0.98594    1.000
    Si3198   Si       0.56142    0.05576    0.88732    1.000
    N3199    N        0.53130    0.06008    0.96678    1.000
    N3200    N        0.56233    0.12704    0.96533    1.000
    N3201    N        0.57848    0.19449    0.95319    1.000
    N3202    N        0.53572    0.22908    0.88540    1.000
    Si3203   Si       0.55667    0.16031    0.93663    1.000
    Si3204   Si       0.57364    0.24867    0.88673    1.000
    N3205    N        0.56828    0.15203    0.89408    1.000
    N3206    N        0.55074    0.32904    0.04622    1.000
    Si3207   Si       0.53562    0.31680    0.00560    1.000
    N3208    N        0.55741    0.26955    0.07641    1.000
    Si3209   Si       0.53647    0.36083    0.07208    1.000
    Si3210   Si       0.54298    0.49610    0.05246    1.000
    Si3211   Si       0.55948    0.41668    0.10738    1.000
    N3212    N        0.53140    0.45981    0.03181    1.000
    N3213    N        0.52570    0.44113    0.09707    1.000
    N3214    N        0.57582    0.38443    0.07843    1.000
    Si3215   Si       0.51921    0.29876    0.22923    1.000
    N3216    N        0.54002    0.31672    0.15189    1.000
    N3217    N        0.55844    0.28940    0.21244    1.000
    Si3218   Si       0.53936    0.27465    0.17350    1.000
    Si3219   Si       0.52238    0.35616    0.14251    1.000
    N3220    N        0.53703    0.40141    0.21274    1.000
    Si3221   Si       0.52724    0.49664    0.17977    1.000
    N3222    N        0.54905    0.39076    0.14234    1.000
    N3223    N        0.55764    0.51095    0.15099    1.000
    Si3224   Si       0.55282    0.41915    0.17574    1.000
    N3225    N        0.52738    0.45490    0.16676    1.000
    Si3226   Si       0.55999    0.35773    0.30828    1.000
    N3227    N        0.53285    0.27794    0.34127    1.000
    N3228    N        0.57527    0.37527    0.34305    1.000
    N3229    N        0.57498    0.38714    0.27847    1.000
    N3230    N        0.55868    0.46248    0.31841    1.000
    Si3231   Si       0.55852    0.47226    0.36116    1.000
    Si3232   Si       0.54910    0.41599    0.25289    1.000
    N3233    N        0.57853    0.44785    0.24902    1.000
    Si3234   Si       0.51566    0.45328    0.30954    1.000
    N3235    N        0.55572    0.33009    0.46550    1.000
    Si3236   Si       0.55805    0.34077    0.42484    1.000
    N3237    N        0.53003    0.31605    0.40325    1.000
    Si3238   Si       0.52717    0.27531    0.38366    1.000
    N3239    N        0.54656    0.26392    0.47868    1.000
    Si3240   Si       0.56922    0.29750    0.49301    1.000
    N3241    N        0.54317    0.38313    0.42831    1.000
    Si3242   Si       0.56510    0.41951    0.41665    1.000
    N3243    N        0.54413    0.44071    0.38552    1.000
    N3244    N        0.56695    0.44418    0.45293    1.000
    Si3245   Si       0.54126    0.42737    0.48393    1.000
    Si3246   Si       0.55572    0.35898    0.60231    1.000
    N3247    N        0.56643    0.32573    0.52777    1.000
    Si3248   Si       0.54514    0.35274    0.50053    1.000
    N3249    N        0.53564    0.28059    0.61842    1.000
    N3250    N        0.54527    0.46060    0.51373    1.000
    Si3251   Si       0.54590    0.49277    0.58265    1.000
    N3252    N        0.56211    0.39234    0.50071    1.000
    N3253    N        0.55216    0.31045    0.68761    1.000
    Si3254   Si       0.56641    0.29551    0.64791    1.000
    N3255    N        0.56625    0.37466    0.69814    1.000
    N3256    N        0.53535    0.27122    0.74380    1.000
    N3257    N        0.58119    0.33249    0.62784    1.000
    N3258    N        0.55608    0.43211    0.67939    1.000
    Si3259   Si       0.52137    0.41760    0.65481    1.000
    N3260    N        0.54704    0.39367    0.62711    1.000
    N3261    N        0.52629    0.40107    0.73810    1.000
    Si3262   Si       0.54152    0.46921    0.70231    1.000
    N3263    N        0.55740    0.50448    0.68281    1.000
    N3264    N        0.56356    0.45584    0.73867    1.000
    Si3265   Si       0.56714    0.41215    0.72354    1.000
    Si3266   Si       0.57706    0.39792    0.65962    1.000
    Si3267   Si       0.53190    0.30101    0.84440    1.000
    Si3268   Si       0.56443    0.33954    0.78987    1.000
    N3269    N        0.53724    0.30821    0.80249    1.000
    N3270    N        0.56733    0.27824    0.85679    1.000
    Si3271   Si       0.53547    0.37618    0.84327    1.000
    N3272    N        0.54398    0.37674    0.80079    1.000
    N3273    N        0.57334    0.38124    0.86428    1.000
    N3274    N        0.57976    0.32846    0.75037    1.000
    N3275    N        0.51961    0.34033    0.86248    1.000
    Si3276   Si       0.55585    0.49993    0.82186    1.000
    Si3277   Si       0.53509    0.47089    0.76901    1.000
    N3278    N        0.52286    0.48184    0.84347    1.000
    N3279    N        0.53120    0.31464    0.92372    1.000
    Si3280   Si       0.55147    0.28527    0.94454    1.000
    N3281    N        0.56857    0.30054    0.98102    1.000
    N3282    N        0.52052    0.35478    0.98868    1.000
    Si3283   Si       0.53087    0.38336    0.95702    1.000
    N3284    N        0.57298    0.38367    0.94344    1.000
    Si3285   Si       0.56110    0.47224    0.92791    1.000
    N3286    N        0.56498    0.47093    0.97275    1.000
    N3287    N        0.53566    0.50365    0.91161    1.000
    N3288    N        0.55094    0.43513    0.90816    1.000
    Si3289   Si       0.54730    0.43909    0.99925    1.000
    N3290    N        0.55814    0.58777    0.02266    1.000
    Si3291   Si       0.55323    0.60828    0.06421    1.000
    N3292    N        0.55791    0.52222    0.02154    1.000
    Si3293   Si       0.53378    0.55457    0.00486    1.000
    N3294    N        0.55228    0.62194    0.11364    1.000
    N3295    N        0.51749    0.58258    0.08036    1.000
    Si3296   Si       0.52492    0.72257    0.07560    1.000
    N3297    N        0.53035    0.64283    0.05349    1.000
    Si3298   Si       0.53382    0.65978    0.09595    1.000
    N3299    N        0.54011    0.74446    0.04189    1.000
    N3300    N        0.55543    0.69607    0.09357    1.000
    N3301    N        0.57658    0.65627    0.99807    1.000
    N3302    N        0.52322    0.74413    0.11398    1.000
    Si3303   Si       0.52838    0.55066    0.23076    1.000
    N3304    N        0.54506    0.51129    0.21650    1.000
    N3305    N        0.52143    0.57155    0.19074    1.000
    Si3306   Si       0.55157    0.71670    0.13310    1.000
    N3307    N        0.57815    0.72657    0.20692    1.000
    N3308    N        0.53621    0.68626    0.15924    1.000
    Si3309   Si       0.57388    0.70056    0.23847    1.000
    Si3310   Si       0.54169    0.65437    0.18733    1.000
    N3311    N        0.55599    0.66170    0.22785    1.000
    N3312    N        0.56053    0.62275    0.28704    1.000
    Si3313   Si       0.52795    0.58917    0.34888    1.000
    N3314    N        0.56637    0.56996    0.35529    1.000
    N3315    N        0.53021    0.50945    0.36370    1.000
    N3316    N        0.56830    0.56223    0.24844    1.000
    N3317    N        0.52927    0.63481    0.35082    1.000
    Si3318   Si       0.55974    0.75566    0.27948    1.000
    Si3319   Si       0.53383    0.64107    0.25827    1.000
    N3320    N        0.55538    0.68785    0.32028    1.000
    Si3321   Si       0.55998    0.64583    0.32443    1.000
    N3322    N        0.54380    0.71846    0.26483    1.000
    Si3323   Si       0.52037    0.70010    0.29531    1.000
    Si3324   Si       0.56490    0.53285    0.37865    1.000
    N3325    N        0.55206    0.54377    0.41967    1.000
    Si3326   Si       0.52841    0.56140    0.49076    1.000
    N3327    N        0.57088    0.56357    0.48122    1.000
    Si3328   Si       0.51889    0.63543    0.39353    1.000
    N3329    N        0.55042    0.65356    0.41976    1.000
    N3330    N        0.52409    0.71974    0.43842    1.000
    Si3331   Si       0.55889    0.74101    0.45329    1.000
    Si3332   Si       0.51982    0.67682    0.44261    1.000
    N3333    N        0.56623    0.70948    0.49305    1.000
    N3334    N        0.52081    0.75550    0.37788    1.000
    Si3335   Si       0.54369    0.55885    0.55457    1.000
    N3336    N        0.53343    0.51806    0.55010    1.000
    N3337    N        0.52758    0.57278    0.59191    1.000
    N3338    N        0.54916    0.51666    0.61800    1.000
    N3339    N        0.55969    0.63076    0.57645    1.000
    N3340    N        0.51649    0.57738    0.52706    1.000
    Si3341   Si       0.52237    0.61700    0.59401    1.000
    Si3342   Si       0.53873    0.72502    0.58826    1.000
    N3343    N        0.53943    0.70250    0.54990    1.000
    Si3344   Si       0.56453    0.67355    0.57326    1.000
    N3345    N        0.55088    0.68985    0.61211    1.000
    Si3346   Si       0.52511    0.70322    0.50852    1.000
    N3347    N        0.56976    0.75187    0.60309    1.000
    Si3348   Si       0.54614    0.54858    0.68741    1.000
    N3349    N        0.54828    0.55572    0.72841    1.000
    N3350    N        0.51716    0.56685    0.66086    1.000
    N3351    N        0.55515    0.67102    0.67984    1.000
    Si3352   Si       0.52848    0.67299    0.64522    1.000
    Si3353   Si       0.54344    0.64852    0.71659    1.000
    N3354    N        0.55669    0.58101    0.78143    1.000
    Si3355   Si       0.55029    0.60461    0.81717    1.000
    Si3356   Si       0.52884    0.55112    0.76801    1.000
    N3357    N        0.57753    0.53130    0.84051    1.000
    N3358    N        0.53455    0.51139    0.78579    1.000
    Si3359   Si       0.51726    0.67319    0.79035    1.000
    N3360    N        0.55092    0.64666    0.80521    1.000
    N3361    N        0.53047    0.70890    0.81667    1.000
    Si3362   Si       0.56668    0.72980    0.80472    1.000
    N3363    N        0.52917    0.67792    0.74808    1.000
    N3364    N        0.52874    0.57849    0.90795    1.000
    Si3365   Si       0.55634    0.61907    0.98965    1.000
    Si3366   Si       0.54925    0.54350    0.92359    1.000
    N3367    N        0.54625    0.54261    0.96503    1.000
    Si3368   Si       0.53920    0.61341    0.93079    1.000
    N3369    N        0.57597    0.60586    0.95369    1.000
    Si3370   Si       0.57750    0.51246    0.98438    1.000
    N3371    N        0.53113    0.75572    0.97161    1.000
    Si3372   Si       0.53654    0.74222    0.92634    1.000
    N3373    N        0.55038    0.64413    0.90100    1.000
    Si3374   Si       0.52812    0.68201    0.89708    1.000
    N3375    N        0.55075    0.71850    0.88337    1.000
    N3376    N        0.52539    0.70053    0.93616    1.000
    N3377    N        0.53537    0.80628    0.02888    1.000
    N3378    N        0.54269    0.87316    0.00482    1.000
    Si3379   Si       0.56876    0.77857    0.03272    1.000
    N3380    N        0.56569    0.84783    0.07242    1.000
    N3381    N        0.53139    0.81619    0.11550    1.000
    Si3382   Si       0.52295    0.82655    0.07209    1.000
    Si3383   Si       0.52653    0.83347    0.99616    1.000
    Si3384   Si       0.56168    0.87898    0.04312    1.000
    N3385    N        0.54180    0.91849    0.05397    1.000
    Si3386   Si       0.52020    0.90114    0.08946    1.000
    N3387    N        0.54860    0.89068    0.12091    1.000
    N3388    N        0.52208    0.00072    0.09671    1.000
    Si3389   Si       0.56218    0.84846    0.12339    1.000
    Si3390   Si       0.52808    0.78607    0.21669    1.000
    N3391    N        0.53580    0.77343    0.17570    1.000
    N3392    N        0.56486    0.84470    0.16853    1.000
    Si3393   Si       0.54969    0.85480    0.20676    1.000
    N3394    N        0.51704    0.82821    0.21773    1.000
    N3395    N        0.57141    0.93484    0.16938    1.000
    N3396    N        0.53099    0.89341    0.21488    1.000
    Si3397   Si       0.53772    0.93090    0.19520    1.000
    N3398    N        0.55091    0.96808    0.21758    1.000
    Si3399   Si       0.55262    0.80965    0.32759    1.000
    N3400    N        0.53775    0.77026    0.31386    1.000
    N3401    N        0.56915    0.80459    0.36692    1.000
    Si3402   Si       0.51929    0.86850    0.36272    1.000
    N3403    N        0.55900    0.78420    0.24823    1.000
    N3404    N        0.51916    0.83682    0.33085    1.000
    N3405    N        0.54393    0.89981    0.34165    1.000
    N3406    N        0.54618    0.94067    0.28314    1.000
    Si3407   Si       0.52757    0.96897    0.25487    1.000
    Si3408   Si       0.52128    0.91424    0.30756    1.000
    Si3409   Si       0.56028    0.00454    0.35691    1.000
    N3410    N        0.56983    0.77729    0.42942    1.000
    N3411    N        0.54354    0.77483    0.48318    1.000
    Si3412   Si       0.53567    0.87247    0.43905    1.000
    Si3413   Si       0.56091    0.76821    0.38667    1.000
    N3414    N        0.55252    0.84542    0.46839    1.000
    N3415    N        0.54310    0.85817    0.39808    1.000
    Si3416   Si       0.53197    0.94438    0.46837    1.000
    N3417    N        0.54447    0.97039    0.37775    1.000
    Si3418   Si       0.56319    0.94987    0.41557    1.000
    N3419    N        0.54464    0.91457    0.43964    1.000
    N3420    N        0.53941    0.97805    0.44279    1.000
    N3421    N        0.53979    0.81723    0.53736    1.000
    Si3422   Si       0.55209    0.85006    0.51188    1.000
    Si3423   Si       0.56796    0.78701    0.51761    1.000
    N3424    N        0.52114    0.88065    0.51096    1.000
    N3425    N        0.51776    0.86501    0.57747    1.000
    N3426    N        0.55745    0.92019    0.56654    1.000
    Si3427   Si       0.55970    0.95901    0.54237    1.000
    Si3428   Si       0.54465    0.93048    0.60808    1.000
    N3429    N        0.52380    0.96803    0.60610    1.000
    N3430    N        0.56424    0.94821    0.49999    1.000
    N3431    N        0.52357    0.98266    0.54458    1.000
    Si3432   Si       0.52341    0.89731    0.55123    1.000
    N3433    N        0.56823    0.87271    0.67701    1.000
    N3434    N        0.55079    0.77795    0.72453    1.000
    N3435    N        0.56686    0.82114    0.62954    1.000
    Si3436   Si       0.52643    0.80876    0.64167    1.000
    Si3437   Si       0.52556    0.87901    0.66906    1.000
    N3438    N        0.57204    0.93832    0.69939    1.000
    Si3439   Si       0.53101    0.94270    0.71451    1.000
    N3440    N        0.51972    0.90284    0.63174    1.000
    N3441    N        0.54467    0.99615    0.66376    1.000
    Si3442   Si       0.54123    0.00543    0.62184    1.000
    Si3443   Si       0.55275    0.79947    0.76380    1.000
    N3444    N        0.54937    0.76512    0.78962    1.000
    N3445    N        0.52437    0.82265    0.79128    1.000
    Si3446   Si       0.52803    0.91342    0.78432    1.000
    N3447    N        0.56864    0.90843    0.79937    1.000
    N3448    N        0.53270    0.94716    0.75858    1.000
    N3449    N        0.54333    0.90628    0.86288    1.000
    Si3450   Si       0.57568    0.89036    0.83744    1.000
    Si3451   Si       0.55319    0.84439    0.92254    1.000
    N3452    N        0.54380    0.82123    0.95868    1.000
    Si3453   Si       0.56144    0.78369    0.96407    1.000
    N3454    N        0.53262    0.82461    0.89102    1.000
    N3455    N        0.54275    0.88684    0.93120    1.000
    N3456    N        0.54582    0.93886    0.98540    1.000
    Si3457   Si       0.55574    0.89741    0.97206    1.000
    N3458    N        0.54288    0.95773    0.91763    1.000
    Si3459   Si       0.54876    0.98774    0.88661    1.000
    N3460    N        0.56716    0.99935    0.97488    1.000
    Si3461   Si       0.55334    0.91723    0.90355    1.000
    Si3462   Si       0.53551    0.97204    0.95867    1.000
    N3463    N        0.60670    0.11586    0.03033    1.000
    Si3464   Si       0.59184    0.01711    0.05187    1.000
    N3465    N        0.62874    0.04417    0.05326    1.000
    N3466    N        0.58635    0.02176    0.09591    1.000
    Si3467   Si       0.62852    0.05266    0.10349    1.000
    Si3468   Si       0.63669    0.09016    0.04975    1.000
    N3469    N        0.62932    0.23980    0.07302    1.000
    Si3470   Si       0.61467    0.20608    0.09636    1.000
    Si3471   Si       0.59179    0.14968    0.05101    1.000
    N3472    N        0.61678    0.16408    0.08457    1.000
    N3473    N        0.60068    0.24145    0.99874    1.000
    Si3474   Si       0.62819    0.25542    0.03010    1.000
    Si3475   Si       0.58430    0.10724    0.15232    1.000
    N3476    N        0.61875    0.08388    0.23258    1.000
    N3477    N        0.59258    0.03127    0.20486    1.000
    N3478    N        0.60299    0.06925    0.13762    1.000
    Si3479   Si       0.62703    0.01149    0.22324    1.000
    Si3480   Si       0.58349    0.03839    0.16328    1.000
    Si3481   Si       0.57778    0.06454    0.22813    1.000
    Si3482   Si       0.57800    0.22259    0.15651    1.000
    Si3483   Si       0.60103    0.16233    0.19261    1.000
    N3484    N        0.61955    0.15428    0.23194    1.000
    N3485    N        0.61180    0.14158    0.15595    1.000
    Si3486   Si       0.60750    0.22625    0.22630    1.000
    N3487    N        0.60145    0.20645    0.18889    1.000
    Si3488   Si       0.59631    0.03011    0.29547    1.000
    N3489    N        0.61917    0.05511    0.32394    1.000
    N3490    N        0.61496    0.12106    0.29688    1.000
    Si3491   Si       0.60642    0.11987    0.25426    1.000
    Si3492   Si       0.61698    0.04816    0.36583    1.000
    N3493    N        0.62268    0.01388    0.26620    1.000
    Si3494   Si       0.59537    0.14253    0.32818    1.000
    N3495    N        0.62604    0.15431    0.35701    1.000
    N3496    N        0.59174    0.24677    0.30905    1.000
    Si3497   Si       0.61551    0.24045    0.34748    1.000
    Si3498   Si       0.63296    0.24891    0.29047    1.000
    Si3499   Si       0.58500    0.07308    0.42451    1.000
    N3500    N        0.59252    0.08017    0.38314    1.000
    Si3501   Si       0.61408    0.04210    0.48072    1.000
    N3502    N        0.61801    0.05173    0.43955    1.000
    Si3503   Si       0.59576    0.11612    0.48770    1.000
    N3504    N        0.58426    0.00961    0.48535    1.000
    N3505    N        0.60217    0.22948    0.45396    1.000
    N3506    N        0.59579    0.16229    0.47914    1.000
    N3507    N        0.61605    0.21935    0.38501    1.000
    Si3508   Si       0.61789    0.17597    0.39437    1.000
    Si3509   Si       0.59555    0.24302    0.41263    1.000
    N3510    N        0.59642    0.10530    0.56210    1.000
    Si3511   Si       0.59080    0.02034    0.56834    1.000
    N3512    N        0.60534    0.07371    0.50786    1.000
    Si3513   Si       0.62709    0.07850    0.54697    1.000
    N3514    N        0.63040    0.03844    0.56626    1.000
    N3515    N        0.57866    0.02611    0.61014    1.000
    Si3516   Si       0.60535    0.14578    0.57724    1.000
    N3517    N        0.62267    0.18087    0.55795    1.000
    Si3518   Si       0.59753    0.21723    0.55210    1.000
    N3519    N        0.63197    0.24025    0.54003    1.000
    N3520    N        0.58651    0.22983    0.59331    1.000
    N3521    N        0.61845    0.14362    0.61994    1.000
    N3522    N        0.59233    0.05172    0.68026    1.000
    Si3523   Si       0.59069    0.05965    0.63737    1.000
    Si3524   Si       0.62095    0.02251    0.69743    1.000
    N3525    N        0.59614    0.11933    0.67314    1.000
    Si3526   Si       0.63226    0.11398    0.65136    1.000
    N3527    N        0.63064    0.07558    0.63253    1.000
    N3528    N        0.62390    0.01367    0.74121    1.000
    N3529    N        0.59258    0.07487    0.74504    1.000
    Si3530   Si       0.61271    0.23910    0.62492    1.000
    N3531    N        0.58921    0.25841    0.65493    1.000
    Si3532   Si       0.59617    0.18750    0.73988    1.000
    N3533    N        0.58618    0.14827    0.72926    1.000
    N3534    N        0.61038    0.20761    0.70416    1.000
    Si3535   Si       0.58340    0.24070    0.69484    1.000
    Si3536   Si       0.62111    0.11916    0.82737    1.000
    Si3537   Si       0.59125    0.11640    0.75849    1.000
    N3538    N        0.62045    0.05151    0.80822    1.000
    Si3539   Si       0.62589    0.05162    0.76356    1.000
    N3540    N        0.62678    0.11596    0.78378    1.000
    N3541    N        0.58233    0.10420    0.83796    1.000
    Si3542   Si       0.57963    0.06729    0.81798    1.000
    N3543    N        0.63946    0.02352    0.86273    1.000
    N3544    N        0.58306    0.20254    0.81934    1.000
    Si3545   Si       0.62325    0.18840    0.80963    1.000
    N3546    N        0.62254    0.15797    0.84143    1.000
    N3547    N        0.62833    0.18254    0.76771    1.000
    N3548    N        0.63175    0.01087    0.93782    1.000
    N3549    N        0.59787    0.06959    0.97712    1.000
    N3550    N        0.59605    0.06704    0.90951    1.000
    Si3551   Si       0.61954    0.05172    0.94304    1.000
    Si3552   Si       0.60088    0.11242    0.98591    1.000
    N3553    N        0.63878    0.12744    0.97118    1.000
    N3554    N        0.62877    0.17138    0.91535    1.000
    Si3555   Si       0.60622    0.17256    0.87837    1.000
    Si3556   Si       0.61251    0.20911    0.92662    1.000
    N3557    N        0.60493    0.21701    0.88191    1.000
    N3558    N        0.64070    0.23767    0.94408    1.000
    N3559    N        0.61427    0.30005    0.03603    1.000
    Si3560   Si       0.60782    0.36410    0.10010    1.000
    N3561    N        0.59475    0.32184    0.10471    1.000
    N3562    N        0.60872    0.36125    0.00092    1.000
    N3563    N        0.63342    0.35971    0.06552    1.000
    Si3564   Si       0.60517    0.31818    0.99834    1.000
    Si3565   Si       0.58254    0.30250    0.06650    1.000
    Si3566   Si       0.60303    0.38582    0.03876    1.000
    Si3567   Si       0.62072    0.44145    0.00940    1.000
    N3568    N        0.62742    0.48416    0.01873    1.000
    N3569    N        0.58081    0.41955    0.01724    1.000
    N3570    N        0.57703    0.49177    0.07934    1.000
    Si3571   Si       0.61905    0.50194    0.05935    1.000
    Si3572   Si       0.57932    0.48572    0.12117    1.000
    Si3573   Si       0.58060    0.30617    0.14144    1.000
    N3574    N        0.62354    0.26617    0.21631    1.000
    Si3575   Si       0.59940    0.30244    0.20830    1.000
    N3576    N        0.60680    0.32480    0.17191    1.000
    N3577    N        0.61011    0.33058    0.24086    1.000
    N3578    N        0.62321    0.38252    0.13404    1.000
    N3579    N        0.57931    0.26584    0.15186    1.000
    N3580    N        0.58891    0.44360    0.12228    1.000
    Si3581   Si       0.62036    0.42374    0.14745    1.000
    N3582    N        0.63137    0.40455    0.24210    1.000
    Si3583   Si       0.61100    0.43604    0.22145    1.000
    N3584    N        0.59467    0.42227    0.18411    1.000
    Si3585   Si       0.61704    0.32502    0.28352    1.000
    N3586    N        0.60618    0.28055    0.36007    1.000
    N3587    N        0.57892    0.31812    0.30545    1.000
    Si3588   Si       0.57528    0.28297    0.32865    1.000
    N3589    N        0.62374    0.44285    0.29797    1.000
    Si3590   Si       0.58943    0.46552    0.28651    1.000
    Si3591   Si       0.61662    0.40171    0.28450    1.000
    N3592    N        0.60284    0.50486    0.27031    1.000
    N3593    N        0.60999    0.28451    0.49639    1.000
    Si3594   Si       0.60231    0.37797    0.37564    1.000
    Si3595   Si       0.61805    0.30747    0.39011    1.000
    N3596    N        0.59354    0.34081    0.39890    1.000
    N3597    N        0.61318    0.28104    0.42321    1.000
    Si3598   Si       0.62535    0.26525    0.46196    1.000
    Si3599   Si       0.60788    0.45875    0.46210    1.000
    N3600    N        0.62713    0.41949    0.47438    1.000
    Si3601   Si       0.63221    0.49010    0.38704    1.000
    N3602    N        0.62779    0.48220    0.43064    1.000
    N3603    N        0.60308    0.41222    0.40150    1.000
    N3604    N        0.59229    0.49899    0.37462    1.000
    Si3605   Si       0.60166    0.34131    0.54588    1.000
    N3606    N        0.62432    0.36098    0.50998    1.000
    N3607    N        0.58745    0.36977    0.57535    1.000
    N3608    N        0.62890    0.30949    0.55843    1.000
    Si3609   Si       0.60513    0.39880    0.50575    1.000
    N3610    N        0.60579    0.42449    0.54003    1.000
    Si3611   Si       0.62062    0.47884    0.59579    1.000
    Si3612   Si       0.61604    0.40389    0.57598    1.000
    N3613    N        0.61500    0.47916    0.50180    1.000
    N3614    N        0.58366    0.47971    0.57049    1.000
    Si3615   Si       0.58502    0.46273    0.53134    1.000
    N3616    N        0.62334    0.43728    0.60480    1.000
    Si3617   Si       0.61982    0.34111    0.64440    1.000
    N3618    N        0.61952    0.32434    0.68286    1.000
    N3619    N        0.60160    0.27211    0.71955    1.000
    Si3620   Si       0.58322    0.33685    0.70668    1.000
    N3621    N        0.61626    0.38492    0.64809    1.000
    N3622    N        0.63589    0.44381    0.67262    1.000
    N3623    N        0.61820    0.50485    0.63187    1.000
    N3624    N        0.62147    0.48169    0.73936    1.000
    Si3625   Si       0.59622    0.28828    0.82636    1.000
    Si3626   Si       0.60961    0.36480    0.84400    1.000
    N3627    N        0.59717    0.33095    0.81795    1.000
    N3628    N        0.59053    0.26611    0.78906    1.000
    N3629    N        0.63248    0.27781    0.84845    1.000
    Si3630   Si       0.57737    0.28492    0.75319    1.000
    Si3631   Si       0.60299    0.45160    0.76627    1.000
    N3632    N        0.62868    0.39396    0.82058    1.000
    N3633    N        0.60423    0.40987    0.74797    1.000
    N3634    N        0.62400    0.45750    0.85458    1.000
    Si3635   Si       0.63570    0.39925    0.77808    1.000
    N3636    N        0.57585    0.46762    0.79929    1.000
    Si3637   Si       0.61031    0.26409    0.96262    1.000
    N3638    N        0.58400    0.26246    0.92738    1.000
    N3639    N        0.63489    0.29926    0.97204    1.000
    N3640    N        0.63487    0.34609    0.87339    1.000
    Si3641   Si       0.61248    0.38511    0.96283    1.000
    N3642    N        0.61972    0.40749    0.90156    1.000
    N3643    N        0.63265    0.42451    0.97118    1.000
    N3644    N        0.60061    0.48128    0.91335    1.000
    Si3645   Si       0.62702    0.44991    0.89604    1.000
    Si3646   Si       0.57709    0.39830    0.90324    1.000
    N3647    N        0.61502    0.54547    0.06491    1.000
    Si3648   Si       0.60120    0.57571    0.03844    1.000
    Si3649   Si       0.62130    0.55133    0.10762    1.000
    N3650    N        0.59704    0.61066    0.06651    1.000
    N3651    N        0.63117    0.58293    0.01018    1.000
    Si3652   Si       0.62665    0.64138    0.07977    1.000
    N3653    N        0.62275    0.67051    0.04769    1.000
    Si3654   Si       0.61498    0.67271    0.00056    1.000
    N3655    N        0.62421    0.71524    0.00254    1.000
    N3656    N        0.63567    0.73401    0.08234    1.000
    Si3657   Si       0.58825    0.61311    0.13813    1.000
    N3658    N        0.61075    0.53014    0.20125    1.000
    N3659    N        0.59998    0.57139    0.13894    1.000
    Si3660   Si       0.59359    0.53450    0.16032    1.000
    N3661    N        0.61515    0.61377    0.24153    1.000
    Si3662   Si       0.58521    0.52155    0.23537    1.000
    N3663    N        0.61582    0.50967    0.12959    1.000
    N3664    N        0.57536    0.62897    0.17780    1.000
    N3665    N        0.62290    0.63577    0.12221    1.000
    N3666    N        0.58930    0.73674    0.13725    1.000
    Si3667   Si       0.59994    0.64646    0.21580    1.000
    N3668    N        0.61468    0.68361    0.24071    1.000
    Si3669   Si       0.62976    0.73019    0.12445    1.000
    Si3670   Si       0.57849    0.75694    0.17723    1.000
    N3671    N        0.60907    0.57057    0.30157    1.000
    Si3672   Si       0.60386    0.58585    0.34169    1.000
    Si3673   Si       0.58819    0.59255    0.27046    1.000
    Si3674   Si       0.63071    0.53429    0.29067    1.000
    N3675    N        0.59833    0.63088    0.34197    1.000
    Si3676   Si       0.63741    0.75301    0.28720    1.000
    N3677    N        0.59558    0.73907    0.29670    1.000
    N3678    N        0.62877    0.69713    0.33506    1.000
    Si3679   Si       0.58664    0.71567    0.33153    1.000
    Si3680   Si       0.62771    0.65906    0.35295    1.000
    N3681    N        0.58397    0.73395    0.37088    1.000
    N3682    N        0.59361    0.60292    0.41505    1.000
    N3683    N        0.62297    0.55061    0.43101    1.000
    Si3684   Si       0.58424    0.56638    0.44070    1.000
    N3685    N        0.63226    0.59420    0.48678    1.000
    Si3686   Si       0.60274    0.69303    0.47249    1.000
    N3687    N        0.59282    0.71692    0.43693    1.000
    Si3688   Si       0.61062    0.71393    0.39862    1.000
    N3689    N        0.60838    0.65321    0.45966    1.000
    N3690    N        0.61331    0.67062    0.39266    1.000
    Si3691   Si       0.59173    0.64594    0.42015    1.000
    Si3692   Si       0.59430    0.60451    0.57597    1.000
    Si3693   Si       0.60461    0.56748    0.51141    1.000
    N3694    N        0.61167    0.58734    0.61205    1.000
    N3695    N        0.58288    0.57325    0.54826    1.000
    N3696    N        0.63178    0.62406    0.56569    1.000
    Si3697   Si       0.59439    0.71839    0.52898    1.000
    N3698    N        0.60365    0.69029    0.56327    1.000
    N3699    N        0.62925    0.70681    0.50207    1.000
    N3700    N        0.59036    0.75819    0.54010    1.000
    N3701    N        0.63139    0.75161    0.60821    1.000
    Si3702   Si       0.61761    0.58327    0.65551    1.000
    N3703    N        0.58319    0.55861    0.66516    1.000
    N3704    N        0.62439    0.62055    0.67633    1.000
    Si3705   Si       0.58095    0.51808    0.64744    1.000
    N3706    N        0.61736    0.56133    0.74205    1.000
    N3707    N        0.57634    0.62235    0.72837    1.000
    Si3708   Si       0.57950    0.58243    0.74555    1.000
    Si3709   Si       0.59780    0.73370    0.63185    1.000
    N3710    N        0.61664    0.69759    0.64658    1.000
    Si3711   Si       0.61338    0.64213    0.71456    1.000
    N3712    N        0.61577    0.75153    0.73521    1.000
    N3713    N        0.60555    0.68399    0.71848    1.000
    N3714    N        0.58136    0.73918    0.67463    1.000
    Si3715   Si       0.58910    0.69716    0.68137    1.000
    Si3716   Si       0.59145    0.56316    0.86610    1.000
    N3717    N        0.63394    0.56624    0.85692    1.000
    N3718    N        0.58221    0.60194    0.84858    1.000
    Si3719   Si       0.63298    0.59944    0.82630    1.000
    N3720    N        0.62417    0.63916    0.80241    1.000
    N3721    N        0.58947    0.70082    0.78435    1.000
    Si3722   Si       0.59098    0.66437    0.80923    1.000
    N3723    N        0.59243    0.74288    0.83673    1.000
    N3724    N        0.59194    0.67459    0.85355    1.000
    Si3725   Si       0.61476    0.71016    0.75045    1.000
    Si3726   Si       0.61844    0.52002    0.92226    1.000
    Si3727   Si       0.61573    0.61462    0.94835    1.000
    N3728    N        0.58905    0.54789    0.90734    1.000
    N3729    N        0.61633    0.52155    0.96622    1.000
    N3730    N        0.61665    0.62747    0.90577    1.000
    Si3731   Si       0.59178    0.71522    0.87101    1.000
    N3732    N        0.63663    0.64653    0.97154    1.000
    N3733    N        0.62738    0.72713    0.89262    1.000
    Si3734   Si       0.58643    0.63755    0.87708    1.000
    Si3735   Si       0.62576    0.75694    0.98900    1.000
    N3736    N        0.59969    0.79101    0.06186    1.000
    Si3737   Si       0.60680    0.83050    0.07798    1.000
    N3738    N        0.58977    0.77766    0.99558    1.000
    N3739    N        0.59906    0.90366    0.04375    1.000
    N3740    N        0.59103    0.97502    0.03707    1.000
    Si3741   Si       0.59874    0.98434    0.11409    1.000
    N3742    N        0.58089    0.94791    0.10054    1.000
    Si3743   Si       0.57903    0.93884    0.05879    1.000
    Si3744   Si       0.58571    0.96536    0.99523    1.000
    N3745    N        0.60802    0.83461    0.12086    1.000
    Si3746   Si       0.60446    0.82687    0.16825    1.000
    N3747    N        0.60770    0.78694    0.18406    1.000
    N3748    N        0.58307    0.84791    0.23357    1.000
    Si3749   Si       0.58550    0.97108    0.18879    1.000
    N3750    N        0.58977    0.99528    0.15396    1.000
    N3751    N        0.62434    0.97059    0.20874    1.000
    N3752    N        0.62058    0.90301    0.13112    1.000
    Si3753   Si       0.58075    0.91700    0.13244    1.000
    N3754    N        0.63846    0.90186    0.22175    1.000
    N3755    N        0.60302    0.86525    0.36064    1.000
    Si3756   Si       0.61149    0.85466    0.31675    1.000
    Si3757   Si       0.59034    0.81201    0.25958    1.000
    N3758    N        0.62654    0.78722    0.26142    1.000
    N3759    N        0.58619    0.82236    0.30349    1.000
    Si3760   Si       0.61526    0.87568    0.24840    1.000
    N3761    N        0.60114    0.88605    0.28811    1.000
    N3762    N        0.60264    0.93736    0.33528    1.000
    N3763    N        0.61333    0.94587    0.26809    1.000
    Si3764   Si       0.62411    0.97201    0.35209    1.000
    Si3765   Si       0.58649    0.92723    0.29635    1.000
    Si3766   Si       0.58347    0.90630    0.35909    1.000
    N3767    N        0.57184    0.99989    0.31282    1.000
    Si3768   Si       0.58221    0.83863    0.38962    1.000
    N3769    N        0.60220    0.83223    0.42630    1.000
    Si3770   Si       0.57850    0.81301    0.45543    1.000
    N3771    N        0.60256    0.00694    0.36956    1.000
    N3772    N        0.59552    0.92314    0.39706    1.000
    Si3773   Si       0.59871    0.96915    0.47989    1.000
    Si3774   Si       0.63002    0.93957    0.41646    1.000
    N3775    N        0.60363    0.96506    0.43834    1.000
    N3776    N        0.60871    0.81325    0.57042    1.000
    Si3777   Si       0.60244    0.83814    0.60604    1.000
    Si3778   Si       0.60178    0.77086    0.58014    1.000
    Si3779   Si       0.61713    0.83245    0.53373    1.000
    N3780    N        0.58617    0.86446    0.53450    1.000
    N3781    N        0.59706    0.81112    0.49688    1.000
    N3782    N        0.60087    0.88173    0.60225    1.000
    Si3783   Si       0.59540    0.89731    0.56159    1.000
    N3784    N        0.59554    0.97966    0.55555    1.000
    N3785    N        0.63263    0.91677    0.55220    1.000
    Si3786   Si       0.63090    0.95899    0.54257    1.000
    Si3787   Si       0.59087    0.83716    0.66296    1.000
    N3788    N        0.62868    0.83787    0.64194    1.000
    Si3789   Si       0.58916    0.76984    0.70439    1.000
    N3790    N        0.60501    0.81071    0.69562    1.000
    Si3791   Si       0.61014    0.83762    0.73236    1.000
    N3792    N        0.61227    0.87936    0.72921    1.000
    N3793    N        0.62817    0.90068    0.66668    1.000
    Si3794   Si       0.61475    0.91439    0.62729    1.000
    Si3795   Si       0.59531    0.90242    0.69541    1.000
    Si3796   Si       0.57763    0.96731    0.66698    1.000
    N3797    N        0.57996    0.94039    0.63206    1.000
    N3798    N        0.61657    0.98734    0.67379    1.000
    Si3799   Si       0.61478    0.83731    0.80095    1.000
    N3800    N        0.59254    0.85143    0.83915    1.000
    Si3801   Si       0.62336    0.77152    0.84232    1.000
    N3802    N        0.58936    0.82420    0.76888    1.000
    N3803    N        0.61173    0.91910    0.83952    1.000
    N3804    N        0.60871    0.98272    0.80808    1.000
    Si3805   Si       0.60022    0.94060    0.80058    1.000
    N3806    N        0.62939    0.93752    0.76725    1.000
    Si3807   Si       0.60163    0.00851    0.84203    1.000
    Si3808   Si       0.63702    0.98039    0.76965    1.000
    N3809    N        0.58936    0.98005    0.87434    1.000
    Si3810   Si       0.61363    0.83621    0.87363    1.000
    Si3811   Si       0.61537    0.76398    0.91351    1.000
    N3812    N        0.59549    0.84755    0.91096    1.000
    N3813    N        0.61913    0.79287    0.88057    1.000
    N3814    N        0.57436    0.76523    0.92629    1.000
    N3815    N        0.59806    0.89209    0.96652    1.000
    Si3816   Si       0.61182    0.94342    0.87401    1.000
    N3817    N        0.59629    0.91468    0.90143    1.000
    N3818    N        0.62132    0.95250    0.97716    1.000
    Si3819   Si       0.61313    0.88353    0.92551    1.000
    N3820    N        0.67145    0.08531    0.02212    1.000
    N3821    N        0.65047    0.09023    0.09048    1.000
    Si3822   Si       0.66589    0.03846    0.03100    1.000
    Si3823   Si       0.68845    0.10891    0.10371    1.000
    N3824    N        0.66609    0.00668    0.00277    1.000
    N3825    N        0.66605    0.24296    0.01379    1.000
    Si3826   Si       0.66666    0.25562    0.08754    1.000
    Si3827   Si       0.63755    0.15726    0.12291    1.000
    N3828    N        0.66500    0.03400    0.12521    1.000
    Si3829   Si       0.66013    0.06866    0.23294    1.000
    N3830    N        0.66654    0.02904    0.21656    1.000
    N3831    N        0.68861    0.09140    0.21125    1.000
    N3832    N        0.68041    0.14880    0.11695    1.000
    N3833    N        0.68724    0.17452    0.24119    1.000
    N3834    N        0.67184    0.22129    0.19089    1.000
    Si3835   Si       0.67243    0.22365    0.14867    1.000
    N3836    N        0.64315    0.20145    0.12894    1.000
    N3837    N        0.66776    0.07462    0.27501    1.000
    N3838    N        0.67045    0.10652    0.33651    1.000
    Si3839   Si       0.64197    0.08822    0.30813    1.000
    Si3840   Si       0.69019    0.07197    0.35532    1.000
    Si3841   Si       0.64881    0.17493    0.25770    1.000
    N3842    N        0.65369    0.23331    0.32664    1.000
    Si3843   Si       0.66607    0.15055    0.33775    1.000
    N3844    N        0.66805    0.16163    0.29668    1.000
    Si3845   Si       0.68750    0.22379    0.35459    1.000
    N3846    N        0.69234    0.17913    0.35565    1.000
    N3847    N        0.63204    0.21515    0.26186    1.000
    Si3848   Si       0.65833    0.04887    0.42148    1.000
    N3849    N        0.65821    0.05321    0.37862    1.000
    Si3850   Si       0.67957    0.10798    0.47599    1.000
    N3851    N        0.67932    0.08356    0.43918    1.000
    N3852    N        0.68722    0.01604    0.42911    1.000
    N3853    N        0.64104    0.12255    0.48508    1.000
    N3854    N        0.65204    0.02288    0.48950    1.000
    N3855    N        0.64744    0.17006    0.42419    1.000
    Si3856   Si       0.63941    0.16433    0.46929    1.000
    Si3857   Si       0.69390    0.23566    0.42929    1.000
    N3858    N        0.68747    0.24882    0.38958    1.000
    N3859    N        0.66602    0.25136    0.45911    1.000
    Si3860   Si       0.68982    0.16026    0.42144    1.000
    N3861    N        0.66170    0.10164    0.55680    1.000
    Si3862   Si       0.66699    0.01713    0.57693    1.000
    N3863    N        0.66225    0.01303    0.62188    1.000
    N3864    N        0.69272    0.21516    0.56108    1.000
    Si3865   Si       0.65522    0.20330    0.53963    1.000
    N3866    N        0.68820    0.16551    0.60825    1.000
    N3867    N        0.66224    0.18826    0.49868    1.000
    N3868    N        0.65758    0.04499    0.68386    1.000
    Si3869   Si       0.66595    0.05117    0.64231    1.000
    Si3870   Si       0.68500    0.05795    0.71382    1.000
    Si3871   Si       0.69295    0.13206    0.69663    1.000
    Si3872   Si       0.67221    0.24639    0.64079    1.000
    N3873    N        0.64648    0.21036    0.64375    1.000
    N3874    N        0.66224    0.14149    0.66652    1.000
    Si3875   Si       0.65444    0.16864    0.63266    1.000
    N3876    N        0.68251    0.20077    0.71644    1.000
    Si3877   Si       0.64986    0.21518    0.68947    1.000
    N3878    N        0.67013    0.13574    0.73362    1.000
    Si3879   Si       0.65113    0.05730    0.83947    1.000
    Si3880   Si       0.66493    0.10661    0.76578    1.000
    N3881    N        0.65166    0.09858    0.85138    1.000
    N3882    N        0.66722    0.06484    0.75337    1.000
    N3883    N        0.69416    0.04924    0.82811    1.000
    N3884    N        0.65118    0.21825    0.81928    1.000
    Si3885   Si       0.66659    0.17628    0.74988    1.000
    Si3886   Si       0.63829    0.23653    0.85687    1.000
    Si3887   Si       0.69212    0.22052    0.80298    1.000
    Si3888   Si       0.69883    0.19506    0.87228    1.000
    Si3889   Si       0.68502    0.11958    0.87335    1.000
    Si3890   Si       0.67002    0.09677    0.97916    1.000
    N3891    N        0.65904    0.06817    0.95102    1.000
    N3892    N        0.68081    0.13666    0.91349    1.000
    N3893    N        0.68252    0.18525    0.96424    1.000
    Si3894   Si       0.65712    0.15590    0.94368    1.000
    Si3895   Si       0.67332    0.25346    0.91980    1.000
    Si3896   Si       0.66751    0.22415    0.97478    1.000
    N3897    N        0.67057    0.22657    0.88615    1.000
    N3898    N        0.67276    0.28976    0.06268    1.000
    N3899    N        0.67670    0.34695    0.02577    1.000
    Si3900   Si       0.65074    0.32208    0.05076    1.000
    Si3901   Si       0.67174    0.38442    0.05102    1.000
    N3902    N        0.65844    0.49877    0.08320    1.000
    N3903    N        0.63874    0.41523    0.03876    1.000
    N3904    N        0.69328    0.38452    0.08984    1.000
    N3905    N        0.68043    0.29187    0.18954    1.000
    Si3906   Si       0.63998    0.34958    0.15960    1.000
    N3907    N        0.65691    0.35760    0.19901    1.000
    N3908    N        0.67640    0.33255    0.13811    1.000
    N3909    N        0.66957    0.26273    0.13007    1.000
    Si3910   Si       0.63978    0.36342    0.23909    1.000
    Si3911   Si       0.66633    0.25897    0.21235    1.000
    Si3912   Si       0.67407    0.48186    0.18760    1.000
    N3913    N        0.65491    0.44893    0.13935    1.000
    Si3914   Si       0.65412    0.49099    0.12428    1.000
    Si3915   Si       0.69792    0.43584    0.14264    1.000
    N3916    N        0.63826    0.46505    0.20782    1.000
    N3917    N        0.68243    0.50955    0.21863    1.000
    Si3918   Si       0.68582    0.29451    0.27617    1.000
    N3919    N        0.64380    0.29042    0.29045    1.000
    Si3920   Si       0.68458    0.36030    0.29122    1.000
    N3921    N        0.64034    0.36461    0.28689    1.000
    N3922    N        0.68553    0.33182    0.25462    1.000
    N3923    N        0.69051    0.26133    0.24936    1.000
    N3924    N        0.69136    0.34340    0.33171    1.000
    Si3925   Si       0.67458    0.35572    0.36891    1.000
    N3926    N        0.64485    0.38509    0.36705    1.000
    Si3927   Si       0.65438    0.46405    0.32185    1.000
    N3928    N        0.64589    0.45517    0.36338    1.000
    N3929    N        0.65887    0.31901    0.38530    1.000
    N3930    N        0.66646    0.36267    0.45719    1.000
    Si3931   Si       0.69107    0.29083    0.39630    1.000
    N3932    N        0.67485    0.42625    0.42013    1.000
    Si3933   Si       0.66384    0.40552    0.45801    1.000
    Si3934   Si       0.64401    0.42294    0.39159    1.000
    Si3935   Si       0.66023    0.30028    0.59049    1.000
    N3936    N        0.67207    0.30312    0.50171    1.000
    Si3937   Si       0.66244    0.34645    0.49778    1.000
    N3938    N        0.64556    0.26507    0.61379    1.000
    N3939    N        0.69050    0.28560    0.56345    1.000
    Si3940   Si       0.64290    0.28174    0.52820    1.000
    Si3941   Si       0.69427    0.37898    0.56285    1.000
    N3942    N        0.65414    0.38515    0.57210    1.000
    N3943    N        0.64882    0.49870    0.56754    1.000
    N3944    N        0.68688    0.48372    0.51251    1.000
    Si3945   Si       0.64747    0.49889    0.52393    1.000
    N3946    N        0.65456    0.33227    0.62187    1.000
    Si3947   Si       0.68752    0.35915    0.63082    1.000
    N3948    N        0.67032    0.30818    0.72251    1.000
    Si3949   Si       0.63851    0.28975    0.70152    1.000
    N3950    N        0.66089    0.25843    0.68031    1.000
    N3951    N        0.68355    0.40348    0.63513    1.000
    Si3952   Si       0.64318    0.41929    0.63882    1.000
    N3953    N        0.68027    0.45584    0.72617    1.000
    Si3954   Si       0.64437    0.46785    0.70471    1.000
    N3955    N        0.66386    0.37145    0.76596    1.000
    Si3956   Si       0.65586    0.30838    0.86829    1.000
    N3957    N        0.69133    0.31643    0.84575    1.000
    Si3958   Si       0.67271    0.47155    0.76671    1.000
    Si3959   Si       0.64866    0.43669    0.82715    1.000
    N3960    N        0.64372    0.44297    0.78539    1.000
    N3961    N        0.69017    0.43739    0.84189    1.000
    N3962    N        0.66196    0.29406    0.90863    1.000
    Si3963   Si       0.65753    0.32122    0.94289    1.000
    Si3964   Si       0.64765    0.37493    0.90101    1.000
    N3965    N        0.63928    0.36013    0.93968    1.000
    N3966    N        0.69185    0.36885    0.89904    1.000
    Si3967   Si       0.65180    0.50756    0.98860    1.000
    N3968    N        0.67000    0.44656    0.91063    1.000
    Si3969   Si       0.69095    0.50485    0.93017    1.000
    N3970    N        0.67427    0.47978    0.96374    1.000
    Si3971   Si       0.66903    0.43803    0.95295    1.000
    Si3972   Si       0.67280    0.57473    0.01076    1.000
    Si3973   Si       0.68111    0.53950    0.08016    1.000
    N3974    N        0.68539    0.57548    0.05291    1.000
    N3975    N        0.66204    0.56009    0.11288    1.000
    N3976    N        0.68404    0.53626    0.99466    1.000
    N3977    N        0.67036    0.64153    0.07890    1.000
    N3978    N        0.68495    0.70581    0.03631    1.000
    Si3979   Si       0.69155    0.74364    0.01365    1.000
    Si3980   Si       0.64213    0.71139    0.04565    1.000
    Si3981   Si       0.65139    0.54129    0.21907    1.000
    N3982    N        0.66158    0.57365    0.19102    1.000
    Si3983   Si       0.68028    0.55371    0.15597    1.000
    Si3984   Si       0.65464    0.61236    0.21830    1.000
    N3985    N        0.67751    0.51028    0.15448    1.000
    N3986    N        0.68737    0.67708    0.22162    1.000
    N3987    N        0.63701    0.64206    0.19007    1.000
    Si3988   Si       0.67542    0.71906    0.16943    1.000
    N3989    N        0.65845    0.75402    0.14836    1.000
    N3990    N        0.69185    0.63915    0.15876    1.000
    N3991    N        0.65435    0.73107    0.20510    1.000
    Si3992   Si       0.65424    0.70212    0.23725    1.000
    N3993    N        0.64976    0.69295    0.14284    1.000
    Si3994   Si       0.65018    0.65104    0.15153    1.000
    Si3995   Si       0.67995    0.59941    0.34726    1.000
    N3996    N        0.65375    0.55355    0.26045    1.000
    N3997    N        0.64202    0.58424    0.36310    1.000
    Si3998   Si       0.69011    0.57817    0.26717    1.000
    N3999    N        0.69434    0.57584    0.31016    1.000
    N4000    N        0.65634    0.50914    0.31696    1.000
    N4001    N        0.68407    0.61674    0.24962    1.000
    N4002    N        0.66655    0.64088    0.34361    1.000
    N4003    N        0.66590    0.72353    0.27126    1.000
    Si4004   Si       0.65929    0.72754    0.34992    1.000
    N4005    N        0.69495    0.70590    0.33606    1.000
    Si4006   Si       0.65132    0.51853    0.43627    1.000
    N4007    N        0.65885    0.61201    0.42719    1.000
    N4008    N        0.68087    0.53435    0.46412    1.000
    Si4009   Si       0.66580    0.56343    0.49322    1.000
    Si4010   Si       0.64285    0.62997    0.46539    1.000
    N4011    N        0.66974    0.51375    0.39601    1.000
    Si4012   Si       0.63236    0.58535    0.40649    1.000
    N4013    N        0.67528    0.65490    0.47938    1.000
    N4014    N        0.64764    0.73715    0.39056    1.000
    Si4015   Si       0.67490    0.75679    0.41693    1.000
    N4016    N        0.67428    0.56824    0.57567    1.000
    Si4017   Si       0.67942    0.52634    0.58510    1.000
    Si4018   Si       0.65145    0.59730    0.59582    1.000
    N4019    N        0.63939    0.53838    0.51396    1.000
    N4020    N        0.67579    0.67589    0.54300    1.000
    N4021    N        0.66640    0.68093    0.60272    1.000
    Si4022   Si       0.67101    0.69387    0.50328    1.000
    N4023    N        0.68672    0.74107    0.57391    1.000
    Si4024   Si       0.63856    0.66747    0.56703    1.000
    Si4025   Si       0.69414    0.69989    0.57313    1.000
    Si4026   Si       0.67331    0.75611    0.61511    1.000
    N4027    N        0.67552    0.61980    0.62264    1.000
    N4028    N        0.68349    0.51336    0.62520    1.000
    N4029    N        0.68459    0.57314    0.72934    1.000
    Si4030   Si       0.65142    0.52165    0.65298    1.000
    N4031    N        0.65669    0.56402    0.66109    1.000
    Si4032   Si       0.66840    0.62132    0.66645    1.000
    N4033    N        0.64557    0.63066    0.74185    1.000
    Si4034   Si       0.69238    0.56302    0.68576    1.000
    N4035    N        0.64835    0.51081    0.69471    1.000
    Si4036   Si       0.63952    0.52304    0.73590    1.000
    N4037    N        0.68635    0.72855    0.64698    1.000
    Si4038   Si       0.65911    0.69265    0.64390    1.000
    N4039    N        0.67699    0.66376    0.67326    1.000
    Si4040   Si       0.67855    0.54470    0.79798    1.000
    N4041    N        0.65669    0.58102    0.79409    1.000
    N4042    N        0.68610    0.52743    0.83695    1.000
    N4043    N        0.65738    0.62459    0.85474    1.000
    N4044    N        0.66802    0.51536    0.76716    1.000
    Si4045   Si       0.65083    0.58657    0.75251    1.000
    Si4046   Si       0.65387    0.65448    0.77721    1.000
    N4047    N        0.65473    0.69614    0.76398    1.000
    N4048    N        0.66382    0.75319    0.84186    1.000
    N4049    N        0.68805    0.68841    0.86648    1.000
    Si4050   Si       0.69023    0.71862    0.75251    1.000
    Si4051   Si       0.68831    0.65209    0.84228    1.000
    N4052    N        0.69191    0.65200    0.79928    1.000
    Si4053   Si       0.66847    0.54578    0.87119    1.000
    N4054    N        0.65375    0.59175    0.94137    1.000
    N4055    N        0.65823    0.52262    0.90832    1.000
    Si4056   Si       0.65837    0.61066    0.89820    1.000
    N4057    N        0.69164    0.57981    0.88824    1.000
    N4058    N        0.69539    0.60602    0.99083    1.000
    Si4059   Si       0.67755    0.63317    0.95972    1.000
    N4060    N        0.69574    0.73271    0.97166    1.000
    N4061    N        0.68967    0.74913    0.90236    1.000
    Si4062   Si       0.66877    0.72554    0.87592    1.000
    N4063    N        0.68395    0.64237    0.91716    1.000
    N4064    N        0.66876    0.79295    0.09246    1.000
    Si4065   Si       0.67683    0.83505    0.08221    1.000
    N4066    N        0.67792    0.86458    0.11624    1.000
    Si4067   Si       0.64068    0.77373    0.06508    1.000
    N4068    N        0.64092    0.84988    0.06102    1.000
    N4069    N        0.65613    0.76610    0.02397    1.000
    N4070    N        0.65885    0.89585    0.00685    1.000
    N4071    N        0.66083    0.91981    0.07090    1.000
    Si4072   Si       0.65039    0.92873    0.11343    1.000
    Si4073   Si       0.63928    0.89044    0.04378    1.000
    N4074    N        0.64019    0.97007    0.11477    1.000
    Si4075   Si       0.69033    0.77819    0.12725    1.000
    Si4076   Si       0.64542    0.77035    0.18937    1.000
    Si4077   Si       0.66158    0.86728    0.20866    1.000
    N4078    N        0.67328    0.79565    0.21091    1.000
    Si4079   Si       0.63904    0.86404    0.13389    1.000
    N4080    N        0.63832    0.85204    0.17486    1.000
    N4081    N        0.68956    0.92847    0.13386    1.000
    N4082    N        0.69050    0.98559    0.16611    1.000
    Si4083   Si       0.67634    0.99059    0.12437    1.000
    Si4084   Si       0.64250    0.94232    0.23455    1.000
    N4085    N        0.65312    0.84917    0.32702    1.000
    Si4086   Si       0.66088    0.80865    0.25036    1.000
    Si4087   Si       0.64613    0.86051    0.36849    1.000
    N4088    N        0.69225    0.80763    0.27893    1.000
    N4089    N        0.65468    0.76260    0.32400    1.000
    Si4090   Si       0.69262    0.83540    0.31207    1.000
    N4091    N        0.64910    0.84945    0.24724    1.000
    Si4092   Si       0.69363    0.96102    0.36812    1.000
    N4093    N        0.65494    0.98187    0.32232    1.000
    N4094    N        0.67413    0.95722    0.26432    1.000
    Si4095   Si       0.63983    0.97783    0.28301    1.000
    N4096    N        0.66534    0.83186    0.39387    1.000
    Si4097   Si       0.67883    0.80185    0.47782    1.000
    N4098    N        0.65555    0.78375    0.44346    1.000
    Si4099   Si       0.64531    0.82412    0.43068    1.000
    N4100    N        0.67006    0.84209    0.46197    1.000
    N4101    N        0.66363    0.92224    0.43933    1.000
    Si4102   Si       0.66887    0.93798    0.47872    1.000
    N4103    N        0.67587    0.89322    0.37695    1.000
    N4104    N        0.65223    0.95870    0.38292    1.000
    Si4105   Si       0.69699    0.90562    0.41410    1.000
    Si4106   Si       0.68661    0.00966    0.47086    1.000
    N4107    N        0.65693    0.85273    0.53944    1.000
    N4108    N        0.67430    0.79368    0.51987    1.000
    Si4109   Si       0.69465    0.82620    0.54258    1.000
    N4110    N        0.63267    0.95266    0.49840    1.000
    Si4111   Si       0.66810    0.89460    0.54280    1.000
    N4112    N        0.66653    0.97597    0.56180    1.000
    N4113    N        0.67814    0.90240    0.50104    1.000
    N4114    N        0.64575    0.94431    0.62124    1.000
    Si4115   Si       0.65684    0.80953    0.66492    1.000
    N4116    N        0.68064    0.79664    0.63011    1.000
    Si4117   Si       0.68184    0.84399    0.72655    1.000
    Si4118   Si       0.65027    0.77749    0.73388    1.000
    N4119    N        0.66824    0.77728    0.69458    1.000
    N4120    N        0.67390    0.84375    0.68618    1.000
    Si4121   Si       0.65675    0.87252    0.65723    1.000
    N4122    N        0.64926    0.82091    0.74493    1.000
    Si4123   Si       0.68547    0.93539    0.63718    1.000
    N4124    N        0.68153    0.96453    0.66757    1.000
    N4125    N        0.68010    0.88530    0.73995    1.000
    Si4126   Si       0.64790    0.97977    0.64487    1.000
    N4127    N        0.68742    0.89091    0.63210    1.000
    Si4128   Si       0.67960    0.79312    0.82912    1.000
    N4129    N        0.68385    0.76251    0.75907    1.000
    N4130    N        0.63945    0.80639    0.81782    1.000
    N4131    N        0.64933    0.86189    0.86967    1.000
    Si4132   Si       0.69312    0.85079    0.86566    1.000
    N4133    N        0.63965    0.87484    0.79595    1.000
    Si4134   Si       0.64516    0.89164    0.83747    1.000
    N4135    N        0.67598    0.99388    0.77903    1.000
    N4136    N        0.67994    0.91548    0.84396    1.000
    Si4137   Si       0.64071    0.89700    0.75791    1.000
    Si4138   Si       0.68522    0.94950    0.86950    1.000
    N4139    N        0.64263    0.76876    0.94760    1.000
    Si4140   Si       0.68691    0.76295    0.94259    1.000
    Si4141   Si       0.63574    0.91171    0.97450    1.000
    N4142    N        0.64892    0.95876    0.88958    1.000
    Si4143   Si       0.64776    0.00113    0.89901    1.000
    Si4144   Si       0.64912    0.98571    0.96767    1.000
    N4145    N        0.68758    0.96685    0.95954    1.000
    N4146    N        0.65421    0.90228    0.93496    1.000
    N4147    N        0.69270    0.00744    0.90010    1.000
    N4148    N        0.71721    0.10935    0.07235    1.000
    Si4149   Si       0.70999    0.08080    0.04079    1.000
    N4150    N        0.74524    0.07284    0.01554    1.000
    Si4151   Si       0.72837    0.01953    0.08065    1.000
    N4152    N        0.70255    0.04086    0.05464    1.000
    Si4153   Si       0.73978    0.21748    0.06933    1.000
    N4154    N        0.73815    0.17574    0.05928    1.000
    N4155    N        0.74177    0.23280    0.02878    1.000
    N4156    N        0.70038    0.23336    0.07342    1.000
    Si4157   Si       0.74881    0.13895    0.08125    1.000
    Si4158   Si       0.75078    0.18240    0.01669    1.000
    N4159    N        0.73302    0.03035    0.12237    1.000
    Si4160   Si       0.70125    0.04970    0.14707    1.000
    Si4161   Si       0.71195    0.11328    0.17932    1.000
    N4162    N        0.72701    0.03668    0.18251    1.000
    Si4163   Si       0.72563    0.06627    0.21266    1.000
    N4164    N        0.70170    0.09286    0.14364    1.000
    N4165    N        0.75083    0.09719    0.19448    1.000
    N4166    N        0.75141    0.14883    0.12332    1.000
    Si4167   Si       0.75021    0.23526    0.13816    1.000
    N4168    N        0.73531    0.21789    0.21052    1.000
    N4169    N        0.71287    0.20973    0.13795    1.000
    Si4170   Si       0.71268    0.16790    0.13792    1.000
    Si4171   Si       0.70214    0.19115    0.20392    1.000
    N4172    N        0.70654    0.15654    0.17868    1.000
    Si4173   Si       0.73121    0.25184    0.23684    1.000
    N4174    N        0.72147    0.11487    0.27353    1.000
    Si4175   Si       0.71079    0.07420    0.28256    1.000
    Si4176   Si       0.73131    0.01737    0.32898    1.000
    N4177    N        0.70922    0.05489    0.32169    1.000
    N4178    N        0.72956    0.04971    0.25142    1.000
    Si4179   Si       0.74478    0.01065    0.25696    1.000
    N4180    N        0.73845    0.17364    0.29526    1.000
    N4181    N        0.72629    0.22798    0.33359    1.000
    Si4182   Si       0.70671    0.15430    0.27518    1.000
    Si4183   Si       0.73158    0.18480    0.33667    1.000
    Si4184   Si       0.74382    0.25704    0.30915    1.000
    Si4185   Si       0.71746    0.09212    0.41884    1.000
    Si4186   Si       0.71936    0.01939    0.40187    1.000
    N4187    N        0.72021    0.06149    0.38821    1.000
    N4188    N        0.74541    0.07953    0.45061    1.000
    Si4189   Si       0.73593    0.06706    0.49074    1.000
    N4190    N        0.71785    0.13215    0.40362    1.000
    N4191    N        0.71874    0.02846    0.49399    1.000
    Si4192   Si       0.75150    0.20720    0.44699    1.000
    N4193    N        0.72920    0.24814    0.45134    1.000
    N4194    N        0.71163    0.19644    0.42555    1.000
    N4195    N        0.69237    0.14650    0.46319    1.000
    N4196    N        0.74531    0.18777    0.48925    1.000
    N4197    N        0.73268    0.10686    0.57449    1.000
    Si4198   Si       0.72492    0.06891    0.59543    1.000
    N4199    N        0.70712    0.09533    0.50615    1.000
    Si4200   Si       0.70135    0.11167    0.54512    1.000
    N4201    N        0.70077    0.04150    0.56966    1.000
    Si4202   Si       0.70969    0.17771    0.57340    1.000
    Si4203   Si       0.71304    0.25104    0.57598    1.000
    N4204    N        0.70516    0.15377    0.53646    1.000
    Si4205   Si       0.70364    0.17284    0.49707    1.000
    N4206    N        0.70933    0.25025    0.62070    1.000
    N4207    N        0.75496    0.24699    0.56573    1.000
    N4208    N        0.70206    0.01793    0.72016    1.000
    N4209    N        0.70520    0.06540    0.63453    1.000
    Si4210   Si       0.73318    0.08080    0.66417    1.000
    N4211    N        0.70815    0.09043    0.69858    1.000
    Si4212   Si       0.72850    0.18912    0.72717    1.000
    N4213    N        0.74258    0.23185    0.72450    1.000
    N4214    N        0.72758    0.15748    0.69347    1.000
    Si4215   Si       0.71994    0.07540    0.80439    1.000
    N4216    N        0.73272    0.04796    0.77336    1.000
    Si4217   Si       0.70913    0.01988    0.85854    1.000
    N4218    N        0.69880    0.11261    0.79265    1.000
    Si4219   Si       0.69472    0.02858    0.76244    1.000
    N4220    N        0.74989    0.08998    0.83211    1.000
    Si4221   Si       0.71157    0.15216    0.80693    1.000
    N4222    N        0.71649    0.21588    0.83718    1.000
    Si4223   Si       0.74432    0.25256    0.76391    1.000
    N4224    N        0.69679    0.15498    0.84970    1.000
    N4225    N        0.69585    0.18443    0.77985    1.000
    Si4226   Si       0.75268    0.23650    0.82901    1.000
    N4227    N        0.74942    0.02926    0.87418    1.000
    N4228    N        0.71896    0.09333    0.89000    1.000
    Si4229   Si       0.71738    0.11373    0.92678    1.000
    N4230    N        0.71172    0.10531    0.96826    1.000
    Si4231   Si       0.75297    0.10329    0.98589    1.000
    Si4232   Si       0.75294    0.07301    0.87145    1.000
    N4233    N        0.72714    0.19558    0.90347    1.000
    N4234    N        0.75037    0.19642    0.97506    1.000
    N4235    N        0.75167    0.14066    0.92622    1.000
    N4236    N        0.70203    0.24052    0.94828    1.000
    Si4237   Si       0.71864    0.20043    0.94628    1.000
    N4238    N        0.71947    0.28906    0.01157    1.000
    N4239    N        0.73568    0.35770    0.00064    1.000
    Si4240   Si       0.70355    0.32720    0.00016    1.000
    Si4241   Si       0.70232    0.25704    0.03533    1.000
    Si4242   Si       0.70299    0.36262    0.12352    1.000
    Si4243   Si       0.72027    0.41915    0.07794    1.000
    N4244    N        0.71428    0.45321    0.10577    1.000
    N4245    N        0.70536    0.41166    0.03779    1.000
    Si4246   Si       0.74101    0.48797    0.10106    1.000
    N4247    N        0.75154    0.49936    0.00708    1.000
    Si4248   Si       0.72202    0.40051    0.99961    1.000
    Si4249   Si       0.69126    0.32890    0.20930    1.000
    N4250    N        0.74405    0.34441    0.12639    1.000
    N4251    N        0.72679    0.34483    0.19707    1.000
    N4252    N        0.73436    0.27714    0.14597    1.000
    Si4253   Si       0.69181    0.29384    0.14895    1.000
    N4254    N        0.70979    0.45669    0.18131    1.000
    N4255    N        0.70320    0.39408    0.15420    1.000
    Si4256   Si       0.74487    0.45195    0.20789    1.000
    Si4257   Si       0.73445    0.38689    0.18508    1.000
    N4258    N        0.73786    0.40894    0.21976    1.000
    Si4259   Si       0.72419    0.31642    0.33712    1.000
    N4260    N        0.71792    0.29035    0.30374    1.000
    N4261    N        0.72077    0.38286    0.28343    1.000
    Si4262   Si       0.75067    0.38285    0.31633    1.000
    Si4263   Si       0.72595    0.47394    0.28540    1.000
    Si4264   Si       0.72534    0.44716    0.34272    1.000
    N4265    N        0.74108    0.40528    0.35026    1.000
    N4266    N        0.69547    0.45290    0.30984    1.000
    N4267    N        0.73591    0.47331    0.24397    1.000
    N4268    N        0.73172    0.30167    0.37734    1.000
    N4269    N        0.70760    0.36199    0.39741    1.000
    N4270    N        0.73322    0.35916    0.46186    1.000
    Si4271   Si       0.70021    0.34755    0.43709    1.000
    Si4272   Si       0.69850    0.28056    0.47324    1.000
    Si4273   Si       0.74674    0.37890    0.38809    1.000
    N4274    N        0.69740    0.30514    0.43657    1.000
    Si4275   Si       0.70816    0.45413    0.49030    1.000
    N4276    N        0.71888    0.46604    0.38103    1.000
    N4277    N        0.71573    0.47098    0.45024    1.000
    N4278    N        0.69483    0.41396    0.48776    1.000
    N4279    N        0.75046    0.41561    0.41610    1.000
    Si4280   Si       0.71613    0.44238    0.41682    1.000
    Si4281   Si       0.71077    0.31052    0.53050    1.000
    N4282    N        0.71247    0.35764    0.59547    1.000
    N4283    N        0.73163    0.28719    0.49992    1.000
    N4284    N        0.69699    0.35607    0.52447    1.000
    Si4285   Si       0.74971    0.33635    0.59393    1.000
    N4286    N        0.74962    0.31896    0.55265    1.000
    Si4287   Si       0.72278    0.38185    0.49800    1.000
    N4288    N        0.74300    0.45754    0.51487    1.000
    N4289    N        0.71717    0.41492    0.55802    1.000
    Si4290   Si       0.73247    0.49950    0.52925    1.000
    N4291    N        0.75185    0.48679    0.61988    1.000
    Si4292   Si       0.75470    0.42576    0.53976    1.000
    Si4293   Si       0.74054    0.27048    0.64315    1.000
    N4294    N        0.73407    0.28531    0.68435    1.000
    N4295    N        0.72605    0.34547    0.72744    1.000
    Si4296   Si       0.73420    0.37006    0.69217    1.000
    Si4297   Si       0.70422    0.31607    0.69801    1.000
    N4298    N        0.70626    0.34552    0.66762    1.000
    N4299    N        0.75393    0.47039    0.71264    1.000
    Si4300   Si       0.71990    0.50021    0.64611    1.000
    Si4301   Si       0.71673    0.45042    0.70473    1.000
    Si4302   Si       0.71976    0.42327    0.65109    1.000
    N4303    N        0.72267    0.40959    0.69455    1.000
    N4304    N        0.70986    0.46246    0.66285    1.000
    Si4305   Si       0.71706    0.29682    0.81469    1.000
    N4306    N        0.72814    0.32909    0.78869    1.000
    Si4307   Si       0.70504    0.36070    0.76543    1.000
    N4308    N        0.74479    0.36802    0.85410    1.000
    N4309    N        0.74968    0.28027    0.84054    1.000
    N4310    N        0.70860    0.25838    0.78880    1.000
    Si4311   Si       0.71289    0.34269    0.87212    1.000
    N4312    N        0.72869    0.39071    0.78945    1.000
    N4313    N        0.71423    0.46417    0.78205    1.000
    Si4314   Si       0.72056    0.42936    0.80964    1.000
    Si4315   Si       0.74922    0.48920    0.78060    1.000
    N4316    N        0.75415    0.50204    0.82297    1.000
    Si4317   Si       0.73771    0.33330    0.94000    1.000
    N4318    N        0.73449    0.31499    0.90074    1.000
    N4319    N        0.69835    0.32688    0.95901    1.000
    N4320    N        0.71869    0.49228    0.89504    1.000
    N4321    N        0.69687    0.40657    0.96306    1.000
    Si4322   Si       0.71452    0.39508    0.92469    1.000
    N4323    N        0.73049    0.42260    0.89605    1.000
    Si4324   Si       0.70351    0.45368    0.88106    1.000
    N4325    N        0.72679    0.60570    0.10357    1.000
    N4326    N        0.72110    0.52732    0.09012    1.000
    Si4327   Si       0.70059    0.61078    0.07132    1.000
    Si4328   Si       0.72653    0.63620    0.00154    1.000
    N4329    N        0.72180    0.63833    0.04348    1.000
    N4330    N        0.71847    0.68993    0.09575    1.000
    Si4331   Si       0.69888    0.67183    0.06200    1.000
    N4332    N        0.72696    0.75886    0.11711    1.000
    Si4333   Si       0.74460    0.55117    0.12069    1.000
    N4334    N        0.74796    0.52196    0.20186    1.000
    N4335    N        0.72226    0.56774    0.15890    1.000
    Si4336   Si       0.71954    0.60915    0.14611    1.000
    Si4337   Si       0.74286    0.56518    0.19964    1.000
    Si4338   Si       0.71958    0.51625    0.23720    1.000
    N4339    N        0.71850    0.56073    0.23783    1.000
    N4340    N        0.74308    0.65057    0.20900    1.000
    Si4341   Si       0.73566    0.71370    0.12615    1.000
    Si4342   Si       0.71068    0.66819    0.18644    1.000
    N4343    N        0.71552    0.70514    0.16301    1.000
    Si4344   Si       0.72076    0.64467    0.24655    1.000
    N4345    N        0.72702    0.52838    0.34942    1.000
    N4346    N        0.74993    0.62068    0.26956    1.000
    N4347    N        0.71553    0.51553    0.28415    1.000
    Si4348   Si       0.69607    0.53090    0.31913    1.000
    Si4349   Si       0.70382    0.71348    0.29369    1.000
    N4350    N        0.73629    0.65487    0.34266    1.000
    N4351    N        0.72288    0.67678    0.27910    1.000
    N4352    N        0.73292    0.74566    0.28971    1.000
    Si4353   Si       0.69776    0.66809    0.35734    1.000
    Si4354   Si       0.75186    0.65058    0.30102    1.000
    Si4355   Si       0.71740    0.51383    0.45928    1.000
    N4356    N        0.71198    0.60169    0.37896    1.000
    N4357    N        0.72248    0.61712    0.44883    1.000
    N4358    N        0.73512    0.52664    0.42107    1.000
    Si4359   Si       0.70718    0.62754    0.49006    1.000
    N4360    N        0.74320    0.52232    0.49432    1.000
    Si4361   Si       0.69863    0.62370    0.41394    1.000
    Si4362   Si       0.71225    0.50993    0.38767    1.000
    N4363    N        0.74372    0.69662    0.45825    1.000
    Si4364   Si       0.72505    0.73829    0.47130    1.000
    Si4365   Si       0.72061    0.69655    0.42090    1.000
    Si4366   Si       0.74763    0.75279    0.38526    1.000
    N4367    N        0.74659    0.70965    0.38862    1.000
    N4368    N        0.69921    0.66537    0.40024    1.000
    N4369    N        0.69600    0.72746    0.43841    1.000
    N4370    N        0.71588    0.52607    0.56061    1.000
    Si4371   Si       0.71049    0.56942    0.54817    1.000
    N4372    N        0.73944    0.62204    0.61893    1.000
    Si4373   Si       0.74931    0.51846    0.59033    1.000
    N4374    N        0.74802    0.58936    0.55603    1.000
    N4375    N        0.69650    0.58827    0.50990    1.000
    N4376    N        0.75250    0.55317    0.61579    1.000
    N4377    N        0.74396    0.64063    0.50608    1.000
    N4378    N        0.73001    0.67860    0.58591    1.000
    Si4379   Si       0.70614    0.64993    0.61031    1.000
    N4380    N        0.69740    0.72918    0.50578    1.000
    Si4381   Si       0.71407    0.60499    0.72601    1.000
    Si4382   Si       0.74396    0.62089    0.66139    1.000
    N4383    N        0.70713    0.60540    0.68127    1.000
    N4384    N        0.72164    0.53059    0.68139    1.000
    N4385    N        0.75261    0.58505    0.72989    1.000
    Si4386   Si       0.75275    0.51350    0.70979    1.000
    N4387    N        0.72048    0.64789    0.73555    1.000
    N4388    N        0.74703    0.66344    0.67423    1.000
    Si4389   Si       0.71190    0.67204    0.69973    1.000
    N4390    N        0.70086    0.71296    0.71219    1.000
    Si4391   Si       0.69965    0.74690    0.68595    1.000
    Si4392   Si       0.72981    0.53645    0.83386    1.000
    N4393    N        0.72072    0.55800    0.79622    1.000
    N4394    N        0.74824    0.56926    0.85570    1.000
    Si4395   Si       0.74875    0.56189    0.76675    1.000
    N4396    N        0.74857    0.52176    0.75224    1.000
    N4397    N        0.72792    0.63677    0.86422    1.000
    Si4398   Si       0.72771    0.66344    0.77626    1.000
    N4399    N        0.72310    0.70781    0.77584    1.000
    Si4400   Si       0.73117    0.59812    0.88402    1.000
    N4401    N        0.72898    0.52854    0.94413    1.000
    Si4402   Si       0.72819    0.52943    0.98927    1.000
    N4403    N        0.75099    0.59974    0.92089    1.000
    N4404    N        0.75541    0.56412    0.98827    1.000
    Si4405   Si       0.71287    0.66779    0.89578    1.000
    N4406    N        0.70844    0.66377    0.97504    1.000
    Si4407   Si       0.72563    0.70293    0.96144    1.000
    N4408    N        0.73758    0.69028    0.92119    1.000
    N4409    N        0.71594    0.82914    0.06453    1.000
    Si4410   Si       0.73351    0.81101    0.02855    1.000
    N4411    N        0.72530    0.76750    0.02338    1.000
    N4412    N        0.73510    0.88476    0.02294    1.000
    Si4413   Si       0.70115    0.90602    0.00359    1.000
    N4414    N        0.72685    0.91503    0.08171    1.000
    N4415    N        0.73718    0.99982    0.00519    1.000
    N4416    N        0.70177    0.94554    0.02380    1.000
    N4417    N        0.70428    0.98031    0.08987    1.000
    Si4418   Si       0.69697    0.94330    0.06648    1.000
    Si4419   Si       0.71000    0.89433    0.11715    1.000
    Si4420   Si       0.69983    0.98093    0.99855    1.000
    N4421    N        0.73768    0.80103    0.23011    1.000
    Si4422   Si       0.71059    0.81310    0.19909    1.000
    N4423    N        0.71011    0.80241    0.15679    1.000
    N4424    N        0.70343    0.85578    0.20351    1.000
    Si4425   Si       0.74932    0.78585    0.14383    1.000
    Si4426   Si       0.73785    0.87816    0.18641    1.000
    N4427    N        0.74194    0.88186    0.14311    1.000
    Si4428   Si       0.74571    0.94075    0.22836    1.000
    Si4429   Si       0.69951    0.00441    0.20307    1.000
    N4430    N        0.72795    0.92038    0.19521    1.000
    Si4431   Si       0.71600    0.94784    0.16273    1.000
    N4432    N        0.73251    0.98410    0.22444    1.000
    N4433    N        0.75339    0.96871    0.15314    1.000
    N4434    N        0.71500    0.81878    0.34445    1.000
    Si4435   Si       0.72864    0.78508    0.27179    1.000
    N4436    N        0.71591    0.87422    0.30804    1.000
    Si4437   Si       0.70686    0.89344    0.34395    1.000
    Si4438   Si       0.70846    0.95434    0.29390    1.000
    N4439    N        0.73194    0.92587    0.26712    1.000
    N4440    N        0.72899    0.99271    0.29405    1.000
    N4441    N        0.71371    0.93647    0.33469    1.000
    N4442    N        0.71262    0.99866    0.36328    1.000
    Si4443   Si       0.74973    0.89156    0.28865    1.000
    N4444    N        0.74129    0.88924    0.37141    1.000
    N4445    N        0.71661    0.78626    0.46517    1.000
    N4446    N        0.74091    0.82645    0.40779    1.000
    Si4447   Si       0.70569    0.81418    0.38786    1.000
    N4448    N        0.70818    0.77020    0.39155    1.000
    Si4449   Si       0.69818    0.87018    0.48054    1.000
    Si4450   Si       0.75434    0.79910    0.43979    1.000
    Si4451   Si       0.75577    0.95499    0.41332    1.000
    N4452    N        0.72358    0.88768    0.44718    1.000
    N4453    N        0.70105    0.96851    0.48280    1.000
    N4454    N        0.71548    0.94291    0.40031    1.000
    N4455    N        0.73161    0.78704    0.54410    1.000
    N4456    N        0.70889    0.83900    0.58248    1.000
    N4457    N        0.74195    0.77823    0.61238    1.000
    N4458    N        0.71921    0.84138    0.50714    1.000
    Si4459   Si       0.71769    0.81404    0.61827    1.000
    Si4460   Si       0.74271    0.79878    0.50064    1.000
    Si4461   Si       0.71545    0.88230    0.59754    1.000
    Si4462   Si       0.69680    0.75978    0.53704    1.000
    N4463    N        0.73218    0.97340    0.54869    1.000
    Si4464   Si       0.70283    0.95401    0.57312    1.000
    Si4465   Si       0.73167    0.99107    0.50847    1.000
    N4466    N        0.71831    0.95167    0.61460    1.000
    N4467    N        0.69997    0.90848    0.56601    1.000
    N4468    N        0.73960    0.83370    0.65078    1.000
    N4469    N        0.74059    0.76332    0.68410    1.000
    N4470    N        0.71775    0.82678    0.74357    1.000
    N4471    N        0.74229    0.99153    0.67314    1.000
    N4472    N        0.71453    0.94843    0.72217    1.000
    Si4473   Si       0.75137    0.96756    0.63917    1.000
    Si4474   Si       0.70839    0.98203    0.69722    1.000
    N4475    N        0.74979    0.89150    0.74669    1.000
    N4476    N        0.71542    0.86430    0.83156    1.000
    Si4477   Si       0.71543    0.78933    0.76873    1.000
    N4478    N        0.71804    0.80071    0.80981    1.000
    Si4479   Si       0.74594    0.83118    0.82109    1.000
    N4480    N        0.75144    0.76818    0.75545    1.000
    N4481    N        0.69466    0.80783    0.86823    1.000
    N4482    N        0.75182    0.92907    0.83923    1.000
    N4483    N        0.75085    0.98488    0.79217    1.000
    Si4484   Si       0.71711    0.90620    0.82178    1.000
    Si4485   Si       0.70749    0.97021    0.79928    1.000
    N4486    N        0.70799    0.92920    0.78679    1.000
    N4487    N        0.70555    0.97864    0.84253    1.000
    Si4488   Si       0.71195    0.91300    0.74587    1.000
    Si4489   Si       0.75334    0.80614    0.95557    1.000
    N4490    N        0.72076    0.78879    0.93340    1.000
    Si4491   Si       0.74571    0.87036    0.98020    1.000
    N4492    N        0.71165    0.87022    0.89920    1.000
    Si4493   Si       0.71835    0.78065    0.89139    1.000
    N4494    N        0.73673    0.82925    0.98981    1.000
    Si4495   Si       0.75360    0.85974    0.89398    1.000
    N4496    N        0.74717    0.99281    0.93783    1.000
    N4497    N        0.71418    0.93854    0.90214    1.000
    Si4498   Si       0.69753    0.90215    0.92517    1.000
    Si4499   Si       0.70964    0.97620    0.92544    1.000
    N4500    N        0.71350    0.89575    0.96313    1.000
    N4501    N        0.76877    0.02381    0.06322    1.000
    Si4502   Si       0.76102    0.03366    0.02042    1.000
    Si4503   Si       0.80146    0.01291    0.08984    1.000
    N4504    N        0.79231    0.13074    0.06941    1.000
    N4505    N        0.76260    0.13825    0.00787    1.000
    Si4506   Si       0.80066    0.14382    0.02782    1.000
    N4507    N        0.76743    0.23288    0.09781    1.000
    N4508    N        0.79436    0.18845    0.02198    1.000
    Si4509   Si       0.80331    0.25570    0.09098    1.000
    N4510    N        0.79680    0.01204    0.13768    1.000
    Si4511   Si       0.79347    0.10237    0.19293    1.000
    N4512    N        0.81037    0.11020    0.23267    1.000
    Si4513   Si       0.75486    0.01379    0.15403    1.000
    N4514    N        0.79899    0.14476    0.18442    1.000
    Si4515   Si       0.78632    0.16380    0.14523    1.000
    N4516    N        0.77578    0.20281    0.15998    1.000
    Si4517   Si       0.77747    0.20658    0.20264    1.000
    N4518    N        0.80365    0.24048    0.20872    1.000
    N4519    N        0.78366    0.18252    0.23818    1.000
    N4520    N        0.77269    0.03012    0.33536    1.000
    Si4521   Si       0.80074    0.03605    0.30433    1.000
    N4522    N        0.78702    0.01583    0.26645    1.000
    N4523    N        0.81169    0.07706    0.29792    1.000
    Si4524   Si       0.77070    0.19711    0.27662    1.000
    N4525    N        0.76441    0.16916    0.36064    1.000
    N4526    N        0.79753    0.20633    0.31002    1.000
    Si4527   Si       0.80394    0.17597    0.33977    1.000
    N4528    N        0.75403    0.23788    0.27185    1.000
    Si4529   Si       0.78568    0.08341    0.43852    1.000
    N4530    N        0.78486    0.11624    0.40734    1.000
    N4531    N        0.80514    0.10937    0.46600    1.000
    N4532    N        0.80583    0.04529    0.43647    1.000
    Si4533   Si       0.79646    0.00680    0.41779    1.000
    N4534    N        0.77291    0.17332    0.43007    1.000
    N4535    N        0.78947    0.23363    0.45811    1.000
    Si4536   Si       0.80689    0.14941    0.44367    1.000
    Si4537   Si       0.75734    0.14950    0.39824    1.000
    Si4538   Si       0.81020    0.22975    0.49827    1.000
    Si4539   Si       0.79567    0.02904    0.51781    1.000
    Si4540   Si       0.79414    0.02956    0.59800    1.000
    N4541    N        0.76699    0.06243    0.60446    1.000
    Si4542   Si       0.79996    0.10219    0.50801    1.000
    N4543    N        0.77436    0.06639    0.51307    1.000
    N4544    N        0.80045    0.12794    0.58828    1.000
    N4545    N        0.79586    0.01487    0.55735    1.000
    Si4546   Si       0.76351    0.13646    0.56518    1.000
    N4547    N        0.77867    0.13573    0.52427    1.000
    Si4548   Si       0.78037    0.21119    0.57094    1.000
    N4549    N        0.79867    0.20504    0.53103    1.000
    Si4550   Si       0.78278    0.17342    0.50509    1.000
    Si4551   Si       0.81341    0.15982    0.61670    1.000
    N4552    N        0.81316    0.20287    0.59863    1.000
    N4553    N        0.75271    0.17686    0.57688    1.000
    N4554    N        0.77758    0.00735    0.73326    1.000
    Si4555   Si       0.78431    0.09898    0.62032    1.000
    Si4556   Si       0.77196    0.01952    0.69131    1.000
    N4557    N        0.76835    0.06076    0.68148    1.000
    N4558    N        0.78779    0.12503    0.70076    1.000
    Si4559   Si       0.80232    0.08750    0.68801    1.000
    N4560    N        0.75232    0.11650    0.64396    1.000
    N4561    N        0.76683    0.17273    0.74497    1.000
    Si4562   Si       0.76324    0.14695    0.67242    1.000
    N4563    N        0.77119    0.24246    0.65607    1.000
    Si4564   Si       0.79978    0.21452    0.63922    1.000
    N4565    N        0.78596    0.17258    0.64800    1.000
    Si4566   Si       0.80362    0.14732    0.73387    1.000
    Si4567   Si       0.76627    0.02033    0.77293    1.000
    N4568    N        0.80389    0.04014    0.78381    1.000
    Si4569   Si       0.77673    0.12658    0.83218    1.000
    Si4570   Si       0.77813    0.18526    0.78591    1.000
    N4571    N        0.78074    0.22052    0.85548    1.000
    N4572    N        0.76869    0.22825    0.78918    1.000
    N4573    N        0.75588    0.15415    0.80846    1.000
    N4574    N        0.80638    0.02363    0.92052    1.000
    N4575    N        0.79322    0.08532    0.88458    1.000
    Si4576   Si       0.80141    0.05293    0.95272    1.000
    N4577    N        0.77463    0.08650    0.95217    1.000
    Si4578   Si       0.78480    0.11482    0.91581    1.000
    N4579    N        0.78784    0.02768    0.98580    1.000
    N4580    N        0.79627    0.19516    0.91297    1.000
    N4581    N        0.78919    0.24899    0.98133    1.000
    N4582    N        0.77805    0.14525    0.87121    1.000
    Si4583   Si       0.76296    0.17302    0.89642    1.000
    Si4584   Si       0.79314    0.20556    0.98148    1.000
    Si4585   Si       0.80435    0.23107    0.88931    1.000
    N4586    N        0.78080    0.30055    0.02236    1.000
    N4587    N        0.79192    0.29557    0.10621    1.000
    Si4588   Si       0.75950    0.26666    0.00677    1.000
    Si4589   Si       0.77108    0.33347    0.99752    1.000
    N4590    N        0.79945    0.36737    0.99544    1.000
    Si4591   Si       0.79288    0.43474    0.08248    1.000
    N4592    N        0.76998    0.47182    0.07252    1.000
    Si4593   Si       0.78161    0.49642    0.03875    1.000
    N4594    N        0.80383    0.46808    0.01301    1.000
    N4595    N        0.75964    0.40761    0.09289    1.000
    N4596    N        0.81226    0.44231    0.12049    1.000
    Si4597   Si       0.77145    0.37662    0.12154    1.000
    Si4598   Si       0.76518    0.32511    0.20783    1.000
    N4599    N        0.77858    0.35550    0.23694    1.000
    Si4600   Si       0.76505    0.30716    0.13852    1.000
    N4601    N        0.78854    0.31827    0.17322    1.000
    Si4602   Si       0.79507    0.27074    0.23919    1.000
    N4603    N        0.75646    0.28619    0.22613    1.000
    N4604    N        0.81267    0.36276    0.12302    1.000
    Si4605   Si       0.79888    0.43169    0.15836    1.000
    Si4606   Si       0.77408    0.50439    0.17350    1.000
    N4607    N        0.77950    0.46218    0.18358    1.000
    N4608    N        0.76688    0.39898    0.15842    1.000
    Si4609   Si       0.78950    0.31575    0.32866    1.000
    N4610    N        0.77897    0.27450    0.32605    1.000
    N4611    N        0.75845    0.34445    0.33288    1.000
    Si4612   Si       0.80657    0.35996    0.26723    1.000
    N4613    N        0.78386    0.39178    0.28688    1.000
    Si4614   Si       0.79654    0.47806    0.31854    1.000
    N4615    N        0.75547    0.46459    0.31611    1.000
    Si4616   Si       0.75348    0.38785    0.25368    1.000
    N4617    N        0.79890    0.34040    0.49124    1.000
    N4618    N        0.79961    0.27219    0.39614    1.000
    Si4619   Si       0.77487    0.34742    0.45160    1.000
    N4620    N        0.77174    0.30129    0.44608    1.000
    N4621    N        0.77553    0.34902    0.40520    1.000
    Si4622   Si       0.76252    0.26852    0.47278    1.000
    Si4623   Si       0.76714    0.30324    0.40162    1.000
    N4624    N        0.79982    0.38883    0.45660    1.000
    Si4625   Si       0.79352    0.41602    0.42268    1.000
    N4626    N        0.81091    0.45759    0.42121    1.000
    N4627    N        0.79437    0.27089    0.50925    1.000
    Si4628   Si       0.77241    0.28284    0.54913    1.000
    N4629    N        0.79004    0.35264    0.60691    1.000
    Si4630   Si       0.80129    0.30908    0.61140    1.000
    N4631    N        0.80848    0.29070    0.57158    1.000
    N4632    N        0.75878    0.29939    0.61695    1.000
    Si4633   Si       0.79805    0.38198    0.50067    1.000
    N4634    N        0.76108    0.39198    0.51534    1.000
    Si4635   Si       0.77584    0.45086    0.61007    1.000
    N4636    N        0.78289    0.43246    0.57148    1.000
    N4637    N        0.77057    0.50128    0.55676    1.000
    Si4638   Si       0.80327    0.37361    0.70869    1.000
    N4639    N        0.77405    0.36758    0.67915    1.000
    N4640    N        0.80718    0.26816    0.70405    1.000
    N4641    N        0.79049    0.35285    0.74360    1.000
    Si4642   Si       0.78543    0.38215    0.64037    1.000
    Si4643   Si       0.76513    0.25596    0.69719    1.000
    Si4644   Si       0.78955    0.45573    0.73057    1.000
    N4645    N        0.81081    0.41464    0.72047    1.000
    N4646    N        0.75800    0.41553    0.63296    1.000
    N4647    N        0.79217    0.33959    0.80603    1.000
    N4648    N        0.77093    0.28806    0.75509    1.000
    Si4649   Si       0.75678    0.32866    0.75396    1.000
    Si4650   Si       0.75158    0.35835    0.81094    1.000
    Si4651   Si       0.81131    0.27652    0.74601    1.000
    Si4652   Si       0.77933    0.47155    0.84179    1.000
    N4653    N        0.78821    0.46879    0.77215    1.000
    N4654    N        0.75727    0.43323    0.83204    1.000
    Si4655   Si       0.75938    0.40598    0.86686    1.000
    N4656    N        0.80414    0.30908    0.87746    1.000
    Si4657   Si       0.76600    0.29111    0.88104    1.000
    N4658    N        0.76573    0.30927    0.96071    1.000
    Si4659   Si       0.79054    0.27618    0.94868    1.000
    N4660    N        0.78003    0.26070    0.90943    1.000
    N4661    N        0.75300    0.37520    0.93948    1.000
    Si4662   Si       0.78203    0.39436    0.96500    1.000
    N4663    N        0.77869    0.47693    0.88434    1.000
    Si4664   Si       0.79615    0.44954    0.91455    1.000
    Si4665   Si       0.75628    0.50175    0.91459    1.000
    N4666    N        0.77111    0.47407    0.94348    1.000
    N4667    N        0.75684    0.42295    0.98775    1.000
    Si4668   Si       0.77308    0.46359    0.98461    1.000
    N4669    N        0.79889    0.41093    0.88556    1.000
    N4670    N        0.79588    0.59978    0.03933    1.000
    N4671    N        0.78258    0.57233    0.10384    1.000
    Si4672   Si       0.77127    0.61386    0.11260    1.000
    N4673    N        0.80514    0.52871    0.05209    1.000
    Si4674   Si       0.80609    0.56908    0.06843    1.000
    Si4675   Si       0.78488    0.59577    0.99910    1.000
    Si4676   Si       0.76302    0.75345    0.00822    1.000
    N4677    N        0.79788    0.74676    0.03199    1.000
    N4678    N        0.79209    0.67709    0.03262    1.000
    N4679    N        0.79646    0.64472    0.09763    1.000
    Si4680   Si       0.80640    0.64040    0.05347    1.000
    Si4681   Si       0.80981    0.67989    0.11586    1.000
    N4682    N        0.78162    0.58103    0.21842    1.000
    N4683    N        0.75949    0.62561    0.15295    1.000
    N4684    N        0.76123    0.51166    0.13269    1.000
    N4685    N        0.79806    0.68508    0.17846    1.000
    Si4686   Si       0.79777    0.72635    0.16941    1.000
    Si4687   Si       0.78057    0.64466    0.18738    1.000
    N4688    N        0.78113    0.71449    0.12283    1.000
    N4689    N        0.77570    0.58242    0.34866    1.000
    N4690    N        0.79393    0.52200    0.31735    1.000
    Si4691   Si       0.76924    0.53938    0.34719    1.000
    Si4692   Si       0.80518    0.60274    0.32407    1.000
    Si4693   Si       0.79016    0.60737    0.25402    1.000
    N4694    N        0.80700    0.58364    0.28483    1.000
    N4695    N        0.79321    0.64391    0.31234    1.000
    N4696    N        0.78266    0.70272    0.32926    1.000
    Si4697   Si       0.76863    0.74009    0.31233    1.000
    Si4698   Si       0.76574    0.67936    0.36222    1.000
    N4699    N        0.80347    0.75405    0.29197    1.000
    Si4700   Si       0.78149    0.53986    0.48825    1.000
    N4701    N        0.79111    0.52255    0.38212    1.000
    Si4702   Si       0.77481    0.54301    0.41693    1.000
    N4703    N        0.77185    0.58477    0.41433    1.000
    Si4704   Si       0.76658    0.60557    0.45171    1.000
    N4705    N        0.79852    0.52902    0.44986    1.000
    N4706    N        0.77447    0.58237    0.48880    1.000
    Si4707   Si       0.75708    0.60585    0.37933    1.000
    Si4708   Si       0.80938    0.74325    0.42229    1.000
    Si4709   Si       0.76874    0.67117    0.48141    1.000
    N4710    N        0.78903    0.64340    0.45566    1.000
    N4711    N        0.77762    0.64567    0.39012    1.000
    Si4712   Si       0.80875    0.65558    0.41939    1.000
    N4713    N        0.75952    0.75457    0.49636    1.000
    Si4714   Si       0.76932    0.60787    0.52276    1.000
    Si4715   Si       0.76110    0.59209    0.59755    1.000
    N4716    N        0.80420    0.59778    0.60220    1.000
    N4717    N        0.80682    0.62784    0.53067    1.000
    N4718    N        0.76725    0.73367    0.56329    1.000
    Si4719   Si       0.76651    0.70022    0.59018    1.000
    Si4720   Si       0.78363    0.73342    0.52353    1.000
    N4721    N        0.79098    0.69452    0.51103    1.000
    N4722    N        0.80347    0.68204    0.58100    1.000
    Si4723   Si       0.81260    0.61308    0.64313    1.000
    Si4724   Si       0.78401    0.57496    0.70194    1.000
    N4725    N        0.78022    0.60037    0.66752    1.000
    N4726    N        0.78865    0.53239    0.69603    1.000
    Si4727   Si       0.76044    0.75572    0.64553    1.000
    Si4728   Si       0.78267    0.68349    0.66086    1.000
    N4729    N        0.76908    0.71453    0.63234    1.000
    N4730    N        0.81089    0.65638    0.64034    1.000
    N4731    N        0.80461    0.70930    0.68756    1.000
    Si4732   Si       0.78184    0.58163    0.83060    1.000
    N4733    N        0.77980    0.58326    0.78910    1.000
    N4734    N        0.79664    0.61893    0.84933    1.000
    Si4735   Si       0.81076    0.59803    0.76397    1.000
    N4736    N        0.81519    0.55507    0.84173    1.000
    N4737    N        0.76174    0.66036    0.80160    1.000
    Si4738   Si       0.79942    0.67452    0.78274    1.000
    N4739    N        0.78000    0.73526    0.81258    1.000
    Si4740   Si       0.77849    0.73170    0.85486    1.000
    Si4741   Si       0.76573    0.65235    0.84435    1.000
    Si4742   Si       0.75977    0.73134    0.77389    1.000
    N4743    N        0.78716    0.70271    0.75425    1.000
    N4744    N        0.77219    0.68818    0.86622    1.000
    N4745    N        0.78501    0.53841    0.91331    1.000
    N4746    N        0.80296    0.59129    0.95821    1.000
    Si4747   Si       0.77924    0.62533    0.94425    1.000
    Si4748   Si       0.76134    0.56260    0.94295    1.000
    N4749    N        0.76799    0.63607    0.98587    1.000
    N4750    N        0.79679    0.72736    0.92423    1.000
    Si4751   Si       0.77836    0.69094    0.90855    1.000
    N4752    N        0.80191    0.65878    0.92944    1.000
    N4753    N        0.76127    0.71564    0.98311    1.000
    Si4754   Si       0.79962    0.73556    0.96630    1.000
    Si4755   Si       0.78473    0.67722    0.99091    1.000
    N4756    N        0.77248    0.80724    0.04828    1.000
    N4757    N        0.77325    0.86801    0.08551    1.000
    Si4758   Si       0.80978    0.78844    0.04769    1.000
    Si4759   Si       0.75509    0.82863    0.08188    1.000
    N4760    N        0.79226    0.92203    0.03923    1.000
    N4761    N        0.79438    0.96869    0.09165    1.000
    Si4762   Si       0.80335    0.91846    0.99830    1.000
    Si4763   Si       0.75800    0.89959    0.05643    1.000
    N4764    N        0.77101    0.81746    0.12134    1.000
    Si4765   Si       0.77952    0.86051    0.12835    1.000
    N4766    N        0.80262    0.80461    0.23860    1.000
    Si4767   Si       0.79793    0.77960    0.20274    1.000
    N4768    N        0.77108    0.84941    0.19502    1.000
    Si4769   Si       0.76725    0.83131    0.23627    1.000
    N4770    N        0.76962    0.76079    0.17429    1.000
    Si4771   Si       0.80604    0.89407    0.24215    1.000
    N4772    N        0.78909    0.93126    0.22599    1.000
    Si4773   Si       0.79293    0.96869    0.13530    1.000
    N4774    N        0.78265    0.83768    0.35224    1.000
    Si4775   Si       0.80155    0.79605    0.28154    1.000
    N4776    N        0.77109    0.86823    0.25981    1.000
    N4777    N        0.76118    0.80624    0.29253    1.000
    N4778    N        0.76304    0.76677    0.34691    1.000
    Si4779   Si       0.75546    0.80863    0.33544    1.000
    N4780    N        0.77590    0.91159    0.31736    1.000
    Si4781   Si       0.75382    0.92615    0.35066    1.000
    N4782    N        0.77572    0.81410    0.47350    1.000
    Si4783   Si       0.76645    0.85768    0.38749    1.000
    Si4784   Si       0.80656    0.83925    0.48427    1.000
    N4785    N        0.79177    0.87638    0.41797    1.000
    N4786    N        0.77200    0.76497    0.42005    1.000
    N4787    N        0.79291    0.87999    0.48186    1.000
    N4788    N        0.75552    0.99937    0.41610    1.000
    N4789    N        0.77998    0.94253    0.38139    1.000
    Si4790   Si       0.76676    0.89578    0.44916    1.000
    N4791    N        0.77102    0.93808    0.44972    1.000
    Si4792   Si       0.79469    0.96406    0.47586    1.000
    N4793    N        0.77409    0.99637    0.49848    1.000
    N4794    N        0.80196    0.78867    0.57990    1.000
    Si4795   Si       0.76001    0.77429    0.57425    1.000
    N4796    N        0.78908    0.94043    0.57224    1.000
    Si4797   Si       0.78905    0.91509    0.60907    1.000
    Si4798   Si       0.77079    0.97919    0.56802    1.000
    N4799    N        0.77035    0.99414    0.60984    1.000
    N4800    N        0.75674    0.88818    0.61332    1.000
    N4801    N        0.81382    0.76294    0.72403    1.000
    N4802    N        0.80413    0.84188    0.62390    1.000
    N4803    N        0.77612    0.82193    0.71659    1.000
    Si4804   Si       0.77011    0.77892    0.71675    1.000
    Si4805   Si       0.77014    0.86132    0.64506    1.000
    N4806    N        0.79931    0.77336    0.65330    1.000
    N4807    N        0.79605    0.87932    0.67620    1.000
    Si4808   Si       0.80756    0.84774    0.70598    1.000
    N4809    N        0.80915    0.86982    0.74490    1.000
    N4810    N        0.80947    0.99929    0.68049    1.000
    Si4811   Si       0.80542    0.92155    0.67948    1.000
    Si4812   Si       0.81261    0.97948    0.71998    1.000
    N4813    N        0.79863    0.93927    0.71839    1.000
    N4814    N        0.78309    0.93834    0.64584    1.000
    N4815    N        0.77184    0.84153    0.78793    1.000
    N4816    N        0.76222    0.83208    0.86165    1.000
    Si4817   Si       0.75514    0.84769    0.74762    1.000
    Si4818   Si       0.78954    0.79947    0.86616    1.000
    Si4819   Si       0.77460    0.95496    0.81227    1.000
    N4820    N        0.79786    0.92736    0.78817    1.000
    N4821    N        0.80857    0.98263    0.82922    1.000
    Si4822   Si       0.78918    0.90882    0.74961    1.000
    N4823    N        0.76446    0.84013    0.93068    1.000
    N4824    N        0.78226    0.77780    0.97274    1.000
    N4825    N        0.75735    0.76538    0.87114    1.000
    N4826    N        0.78025    0.96592    0.88823    1.000
    N4827    N        0.79968    0.95868    0.98124    1.000
    N4828    N        0.77772    0.89688    0.89325    1.000
    Si4829   Si       0.75420    0.93117    0.88276    1.000
    Si4830   Si       0.76940    0.00536    0.90439    1.000
    Si4831   Si       0.76894    0.98911    0.97637    1.000
    N4832    N        0.78436    0.88826    0.97538    1.000
    N4833    N        0.83991    0.02532    0.07610    1.000
    Si4834   Si       0.85935    0.06483    0.08008    1.000
    N4835    N        0.83838    0.09072    0.10793    1.000
    N4836    N        0.85962    0.07624    0.03703    1.000
    Si4837   Si       0.86085    0.04985    0.99967    1.000
    Si4838   Si       0.86881    0.11855    0.03356    1.000
    N4839    N        0.83499    0.12761    0.00883    1.000
    Si4840   Si       0.82852    0.13230    0.09369    1.000
    N4841    N        0.85164    0.00662    0.00652    1.000
    Si4842   Si       0.86431    0.23632    0.03733    1.000
    N4843    N        0.86439    0.13865    0.07188    1.000
    N4844    N        0.83376    0.24298    0.11792    1.000
    N4845    N        0.81410    0.06931    0.17411    1.000
    Si4846   Si       0.84813    0.08144    0.14755    1.000
    Si4847   Si       0.82489    0.02620    0.16839    1.000
    N4848    N        0.86531    0.04075    0.14975    1.000
    N4849    N        0.87132    0.10933    0.16992    1.000
    N4850    N        0.82174    0.16598    0.11995    1.000
    N4851    N        0.85504    0.16460    0.23364    1.000
    N4852    N        0.84825    0.20343    0.17279    1.000
    Si4853   Si       0.84438    0.20235    0.12901    1.000
    Si4854   Si       0.81456    0.15231    0.22679    1.000
    Si4855   Si       0.84499    0.24197    0.19543    1.000
    Si4856   Si       0.83215    0.08574    0.26121    1.000
    N4857    N        0.83783    0.01770    0.32168    1.000
    Si4858   Si       0.83888    0.02984    0.36186    1.000
    Si4859   Si       0.82795    0.09849    0.33405    1.000
    N4860    N        0.82898    0.07097    0.36860    1.000
    N4861    N        0.86897    0.10761    0.27457    1.000
    N4862    N        0.84587    0.04543    0.24712    1.000
    N4863    N        0.83922    0.18808    0.36015    1.000
    N4864    N        0.82208    0.14065    0.32549    1.000
    Si4865   Si       0.86549    0.15372    0.34045    1.000
    Si4866   Si       0.81091    0.24745    0.31236    1.000
    Si4867   Si       0.83918    0.02582    0.45756    1.000
    Si4868   Si       0.86689    0.20144    0.38758    1.000
    Si4869   Si       0.81879    0.25484    0.43034    1.000
    Si4870   Si       0.85219    0.19495    0.45486    1.000
    N4871    N        0.84737    0.22219    0.41970    1.000
    N4872    N        0.84215    0.15681    0.41984    1.000
    N4873    N        0.85489    0.22896    0.48855    1.000
    N4874    N        0.81813    0.17613    0.47737    1.000
    N4875    N        0.83578    0.09825    0.53139    1.000
    N4876    N        0.86194    0.09840    0.59598    1.000
    Si4877   Si       0.86166    0.05531    0.59518    1.000
    Si4878   Si       0.86437    0.06223    0.51753    1.000
    Si4879   Si       0.84227    0.12298    0.56652    1.000
    N4880    N        0.83268    0.03439    0.61678    1.000
    N4881    N        0.83412    0.03434    0.49866    1.000
    N4882    N        0.86237    0.16110    0.56328    1.000
    N4883    N        0.86367    0.23514    0.55712    1.000
    Si4884   Si       0.85231    0.20088    0.57897    1.000
    N4885    N        0.83332    0.06751    0.71306    1.000
    Si4886   Si       0.86073    0.11200    0.63978    1.000
    N4887    N        0.81813    0.09721    0.64745    1.000
    Si4888   Si       0.84032    0.00974    0.65295    1.000
    N4889    N        0.83630    0.17734    0.72696    1.000
    N4890    N        0.83759    0.22495    0.65881    1.000
    Si4891   Si       0.86767    0.19597    0.64915    1.000
    N4892    N        0.85445    0.15508    0.63454    1.000
    N4893    N        0.83226    0.04672    0.85076    1.000
    Si4894   Si       0.82455    0.07135    0.75602    1.000
    Si4895   Si       0.82749    0.02027    0.81633    1.000
    Si4896   Si       0.82960    0.08940    0.85986    1.000
    N4897    N        0.81781    0.11427    0.82667    1.000
    N4898    N        0.86689    0.07183    0.77458    1.000
    N4899    N        0.81959    0.11496    0.75876    1.000
    Si4900   Si       0.83657    0.13634    0.79372    1.000
    N4901    N        0.82081    0.17668    0.78955    1.000
    Si4902   Si       0.84628    0.20249    0.76326    1.000
    N4903    N        0.83857    0.24587    0.76532    1.000
    N4904    N        0.86880    0.10502    0.87160    1.000
    Si4905   Si       0.84157    0.11438    0.96764    1.000
    Si4906   Si       0.83748    0.02709    0.89000    1.000
    N4907    N        0.84028    0.06928    0.96635    1.000
    N4908    N        0.82006    0.12906    0.93471    1.000
    N4909    N        0.84436    0.23944    0.87720    1.000
    N4910    N        0.82943    0.18877    0.96767    1.000
    N4911    N        0.86274    0.24573    0.99366    1.000
    Si4912   Si       0.82748    0.17010    0.92786    1.000
    Si4913   Si       0.86601    0.20402    0.98486    1.000
    N4914    N        0.85904    0.17656    0.89870    1.000
    N4915    N        0.85594    0.30731    0.00980    1.000
    Si4916   Si       0.82132    0.29935    0.03533    1.000
    Si4917   Si       0.82364    0.37320    0.03057    1.000
    N4918    N        0.82420    0.33653    0.05663    1.000
    Si4919   Si       0.81928    0.32856    0.09820    1.000
    N4920    N        0.85762    0.31483    0.11513    1.000
    N4921    N        0.86553    0.37578    0.01847    1.000
    N4922    N        0.82834    0.25831    0.05177    1.000
    Si4923   Si       0.83268    0.44516    0.03402    1.000
    N4924    N        0.83696    0.47007    0.06853    1.000
    Si4925   Si       0.84909    0.46366    0.11013    1.000
    N4926    N        0.81020    0.41048    0.04881    1.000
    N4927    N        0.87035    0.44520    0.01460    1.000
    Si4928   Si       0.84635    0.37677    0.14993    1.000
    N4929    N        0.84931    0.27856    0.17275    1.000
    Si4930   Si       0.85935    0.27554    0.13132    1.000
    N4931    N        0.85353    0.34943    0.18550    1.000
    Si4932   Si       0.82845    0.31214    0.18845    1.000
    N4933    N        0.82428    0.30299    0.23020    1.000
    N4934    N        0.83681    0.41447    0.17085    1.000
    Si4935   Si       0.86589    0.43484    0.19527    1.000
    N4936    N        0.85364    0.46545    0.21994    1.000
    N4937    N        0.85863    0.49980    0.13480    1.000
    Si4938   Si       0.84018    0.30011    0.27083    1.000
    N4939    N        0.85272    0.36898    0.26151    1.000
    N4940    N        0.84672    0.26511    0.33454    1.000
    N4941    N        0.81906    0.32398    0.36028    1.000
    N4942    N        0.81869    0.26181    0.27283    1.000
    Si4943   Si       0.83355    0.28397    0.37015    1.000
    N4944    N        0.81326    0.32592    0.29454    1.000
    Si4945   Si       0.83369    0.42535    0.36095    1.000
    N4946    N        0.85017    0.40855    0.32591    1.000
    N4947    N        0.82441    0.47207    0.28759    1.000
    Si4948   Si       0.84583    0.48906    0.25498    1.000
    N4949    N        0.81234    0.46155    0.35438    1.000
    N4950    N        0.84438    0.34613    0.42477    1.000
    N4951    N        0.83903    0.28386    0.45705    1.000
    Si4952   Si       0.84348    0.37643    0.45490    1.000
    N4953    N        0.86626    0.28121    0.39868    1.000
    N4954    N        0.86874    0.36328    0.48696    1.000
    Si4955   Si       0.81976    0.30340    0.49252    1.000
    Si4956   Si       0.81936    0.35363    0.39013    1.000
    N4957    N        0.81276    0.39707    0.38697    1.000
    Si4958   Si       0.81396    0.48751    0.38972    1.000
    N4959    N        0.85369    0.47467    0.46853    1.000
    Si4960   Si       0.85458    0.45261    0.42869    1.000
    N4961    N        0.86472    0.41055    0.44024    1.000
    N4962    N        0.86536    0.43879    0.38722    1.000
    N4963    N        0.85368    0.50243    0.40930    1.000
    N4964    N        0.85812    0.29789    0.51596    1.000
    Si4965   Si       0.84550    0.27860    0.55276    1.000
    N4966    N        0.85269    0.41286    0.58835    1.000
    N4967    N        0.84028    0.47107    0.55321    1.000
    N4968    N        0.82926    0.40372    0.52319    1.000
    Si4969   Si       0.82400    0.43011    0.55767    1.000
    Si4970   Si       0.83514    0.50262    0.61694    1.000
    Si4971   Si       0.87120    0.39290    0.51769    1.000
    Si4972   Si       0.81204    0.50465    0.54991    1.000
    Si4973   Si       0.83663    0.26804    0.67286    1.000
    Si4974   Si       0.86166    0.32115    0.71994    1.000
    N4975    N        0.83880    0.34992    0.69503    1.000
    Si4976   Si       0.85650    0.36561    0.65829    1.000
    N4977    N        0.83134    0.29654    0.64008    1.000
    N4978    N        0.87148    0.28628    0.69525    1.000
    Si4979   Si       0.87238    0.30656    0.62078    1.000
    Si4980   Si       0.84413    0.43105    0.62745    1.000
    Si4981   Si       0.84598    0.44015    0.72534    1.000
    N4982    N        0.82620    0.39688    0.64832    1.000
    N4983    N        0.81633    0.46370    0.62134    1.000
    N4984    N        0.82493    0.47615    0.71368    1.000
    N4985    N        0.84323    0.29226    0.82307    1.000
    N4986    N        0.83811    0.36002    0.85008    1.000
    N4987    N        0.83987    0.30914    0.75694    1.000
    Si4988   Si       0.85900    0.27925    0.78449    1.000
    N4989    N        0.85043    0.37565    0.77928    1.000
    Si4990   Si       0.82081    0.34480    0.77330    1.000
    Si4991   Si       0.86530    0.27174    0.85578    1.000
    Si4992   Si       0.81567    0.32360    0.83828    1.000
    N4993    N        0.85288    0.44368    0.76862    1.000
    Si4994   Si       0.82932    0.47443    0.78969    1.000
    N4995    N        0.82212    0.46867    0.83420    1.000
    Si4996   Si       0.84563    0.47501    0.87158    1.000
    N4997    N        0.84026    0.35633    0.91900    1.000
    Si4998   Si       0.83564    0.31514    0.90670    1.000
    N4999    N        0.83109    0.29009    0.94245    1.000
    Si5000   Si       0.86059    0.28265    0.97405    1.000
    Si5001   Si       0.83142    0.38329    0.88631    1.000
    Si5002   Si       0.85277    0.43914    0.94564    1.000
    N5003    N        0.81235    0.42223    0.94971    1.000
    N5004    N        0.86993    0.40636    0.89413    1.000
    N5005    N        0.83516    0.46726    0.91141    1.000
    Si5006   Si       0.86199    0.50734    0.92682    1.000
    N5007    N        0.84876    0.57893    0.07694    1.000
    Si5008   Si       0.84668    0.51096    0.05370    1.000
    N5009    N        0.86041    0.51392    0.01376    1.000
    Si5010   Si       0.87047    0.60403    0.04960    1.000
    N5011    N        0.87126    0.58645    0.00874    1.000
    Si5012   Si       0.87373    0.55601    0.10394    1.000
    N5013    N        0.84814    0.64168    0.04524    1.000
    Si5014   Si       0.82052    0.71130    0.04190    1.000
    N5015    N        0.86146    0.71513    0.02735    1.000
    N5016    N        0.83138    0.70812    0.08568    1.000
    Si5017   Si       0.81268    0.74149    0.10573    1.000
    Si5018   Si       0.81531    0.55206    0.21726    1.000
    N5019    N        0.85894    0.56651    0.14285    1.000
    Si5020   Si       0.85282    0.59887    0.17116    1.000
    Si5021   Si       0.85029    0.53060    0.16484    1.000
    N5022    N        0.85353    0.57107    0.20616    1.000
    N5023    N        0.82092    0.62592    0.17334    1.000
    N5024    N        0.81165    0.52583    0.18229    1.000
    Si5025   Si       0.84292    0.66506    0.17613    1.000
    N5026    N        0.84976    0.67476    0.13569    1.000
    Si5027   Si       0.85702    0.72725    0.21780    1.000
    N5028    N        0.83329    0.74541    0.14551    1.000
    N5029    N        0.81795    0.74237    0.20607    1.000
    N5030    N        0.86019    0.68467    0.21186    1.000
    N5031    N        0.81682    0.63954    0.24281    1.000
    N5032    N        0.84160    0.60894    0.34590    1.000
    N5033    N        0.86058    0.54504    0.31648    1.000
    Si5034   Si       0.82358    0.54249    0.29260    1.000
    N5035    N        0.82475    0.52875    0.25062    1.000
    N5036    N        0.83810    0.67660    0.35776    1.000
    N5037    N        0.84090    0.69138    0.28538    1.000
    Si5038   Si       0.84306    0.73516    0.28853    1.000
    Si5039   Si       0.85096    0.66444    0.25218    1.000
    N5040    N        0.86364    0.74878    0.32430    1.000
    Si5041   Si       0.81749    0.67814    0.31853    1.000
    N5042    N        0.86832    0.74553    0.25444    1.000
    N5043    N        0.86248    0.62449    0.48088    1.000
    Si5044   Si       0.84040    0.51235    0.45068    1.000
    Si5045   Si       0.85769    0.63939    0.37123    1.000
    Si5046   Si       0.84512    0.70677    0.38807    1.000
    N5047    N        0.83343    0.74839    0.38631    1.000
    N5048    N        0.84749    0.63471    0.41369    1.000
    N5049    N        0.81738    0.69896    0.41970    1.000
    Si5050   Si       0.85407    0.75116    0.49015    1.000
    Si5051   Si       0.83254    0.57263    0.58074    1.000
    N5052    N        0.85133    0.57910    0.53860    1.000
    Si5053   Si       0.85060    0.62267    0.52167    1.000
    Si5054   Si       0.85743    0.54286    0.51405    1.000
    N5055    N        0.82485    0.53013    0.58436    1.000
    N5056    N        0.81745    0.52804    0.51316    1.000
    Si5057   Si       0.83293    0.68012    0.61262    1.000
    N5058    N        0.85343    0.66733    0.53393    1.000
    Si5059   Si       0.81083    0.66914    0.54104    1.000
    N5060    N        0.81690    0.59170    0.72117    1.000
    Si5061   Si       0.82780    0.51234    0.69600    1.000
    N5062    N        0.84613    0.59032    0.66122    1.000
    N5063    N        0.85462    0.53733    0.72078    1.000
    Si5064   Si       0.85515    0.57854    0.70303    1.000
    N5065    N        0.84625    0.51387    0.65664    1.000
    N5066    N        0.84221    0.71905    0.62864    1.000
    Si5067   Si       0.82622    0.73958    0.66546    1.000
    N5068    N        0.86675    0.74833    0.67961    1.000
    N5069    N        0.85647    0.70738    0.73265    1.000
    Si5070   Si       0.81609    0.71918    0.72748    1.000
    N5071    N        0.84557    0.58402    0.78505    1.000
    Si5072   Si       0.84811    0.54988    0.80974    1.000
    Si5073   Si       0.85877    0.62585    0.78997    1.000
    N5074    N        0.84617    0.51359    0.78765    1.000
    Si5075   Si       0.83587    0.61621    0.86670    1.000
    N5076    N        0.86707    0.62353    0.83290    1.000
    N5077    N        0.82121    0.63863    0.77074    1.000
    N5078    N        0.83800    0.69181    0.79967    1.000
    Si5079   Si       0.84722    0.71984    0.83127    1.000
    N5080    N        0.82341    0.73391    0.86361    1.000
    N5081    N        0.86788    0.75530    0.81539    1.000
    Si5082   Si       0.87035    0.68790    0.76939    1.000
    N5083    N        0.85010    0.51972    0.88293    1.000
    Si5084   Si       0.84201    0.58662    0.94021    1.000
    N5085    N        0.85368    0.54497    0.95131    1.000
    N5086    N        0.83399    0.58417    0.89724    1.000
    N5087    N        0.86338    0.62500    0.94754    1.000
    Si5088   Si       0.81540    0.54631    0.88386    1.000
    N5089    N        0.85384    0.65135    0.88913    1.000
    Si5090   Si       0.84630    0.66127    0.92988    1.000
    Si5091   Si       0.86017    0.71763    0.97765    1.000
    Si5092   Si       0.83217    0.74973    0.90511    1.000
    N5093    N        0.86878    0.69754    0.93577    1.000
    N5094    N        0.82202    0.69738    0.98117    1.000
    N5095    N        0.83984    0.75536    0.96284    1.000
    N5096    N        0.82813    0.77517    0.08377    1.000
    N5097    N        0.83338    0.80355    0.01264    1.000
    Si5098   Si       0.87025    0.78430    0.09139    1.000
    Si5099   Si       0.87471    0.81200    0.01949    1.000
    N5100    N        0.83800    0.91546    0.09621    1.000
    N5101    N        0.85647    0.95920    0.05474    1.000
    Si5102   Si       0.86611    0.00021    0.04723    1.000
    Si5103   Si       0.81789    0.94122    0.06800    1.000
    Si5104   Si       0.85600    0.77713    0.16528    1.000
    N5105    N        0.82720    0.80395    0.17956    1.000
    N5106    N        0.83083    0.86372    0.22147    1.000
    N5107    N        0.81805    0.86777    0.14788    1.000
    Si5108   Si       0.81638    0.84592    0.18345    1.000
    Si5109   Si       0.84039    0.82977    0.24690    1.000
    N5110    N        0.81758    0.94020    0.15599    1.000
    N5111    N        0.85504    0.93437    0.21216    1.000
    N5112    N        0.82344    0.99638    0.20041    1.000
    Si5113   Si       0.83957    0.90426    0.13749    1.000
    Si5114   Si       0.81867    0.95208    0.19687    1.000
    Si5115   Si       0.82337    0.01003    0.24064    1.000
    Si5116   Si       0.82199    0.83994    0.33262    1.000
    N5117    N        0.82942    0.82565    0.29019    1.000
    Si5118   Si       0.85644    0.77277    0.35991    1.000
    N5119    N        0.84435    0.81391    0.36093    1.000
    N5120    N        0.84306    0.87887    0.32671    1.000
    N5121    N        0.83364    0.94898    0.33077    1.000
    N5122    N        0.83175    0.91220    0.27211    1.000
    N5123    N        0.84282    0.97782    0.26646    1.000
    Si5124   Si       0.85392    0.98041    0.30834    1.000
    Si5125   Si       0.81899    0.91178    0.31240    1.000
    Si5126   Si       0.85963    0.94017    0.25502    1.000
    N5127    N        0.83670    0.83626    0.45245    1.000
    Si5128   Si       0.85909    0.79912    0.44709    1.000
    N5129    N        0.86168    0.87366    0.40138    1.000
    Si5130   Si       0.83286    0.87523    0.43286    1.000
    N5131    N        0.83432    0.76259    0.45184    1.000
    N5132    N        0.84523    0.91107    0.45421    1.000
    Si5133   Si       0.82273    0.95522    0.37219    1.000
    N5134    N        0.85553    0.94145    0.39537    1.000
    N5135    N        0.82071    0.99746    0.38379    1.000
    N5136    N        0.82304    0.98246    0.44744    1.000
    Si5137   Si       0.85372    0.95051    0.43842    1.000
    Si5138   Si       0.82633    0.90517    0.49242    1.000
    Si5139   Si       0.82857    0.79058    0.54451    1.000
    Si5140   Si       0.85427    0.85445    0.54267    1.000
    N5141    N        0.82326    0.82842    0.52351    1.000
    N5142    N        0.85874    0.84788    0.58485    1.000
    Si5143   Si       0.84197    0.86427    0.61995    1.000
    Si5144   Si       0.81296    0.80018    0.62047    1.000
    N5145    N        0.82229    0.75338    0.52112    1.000
    N5146    N        0.83718    0.89372    0.53312    1.000
    Si5147   Si       0.82654    0.93449    0.54826    1.000
    N5148    N        0.85931    0.95160    0.56957    1.000
    Si5149   Si       0.86141    0.94083    0.61080    1.000
    N5150    N        0.83187    0.90770    0.61095    1.000
    N5151    N        0.81855    0.94622    0.50716    1.000
    N5152    N        0.86665    0.86135    0.65360    1.000
    N5153    N        0.85660    0.79996    0.62799    1.000
    N5154    N        0.84373    0.82316    0.70219    1.000
    Si5155   Si       0.84346    0.79230    0.73507    1.000
    Si5156   Si       0.86783    0.82025    0.66625    1.000
    N5157    N        0.85023    0.97153    0.74076    1.000
    N5158    N        0.85056    0.91926    0.68502    1.000
    Si5159   Si       0.87030    0.93981    0.71620    1.000
    N5160    N        0.86091    0.97392    0.63789    1.000
    N5161    N        0.83881    0.81250    0.77290    1.000
    Si5162   Si       0.85151    0.79539    0.81189    1.000
    N5163    N        0.84020    0.87435    0.80818    1.000
    Si5164   Si       0.85801    0.85685    0.84412    1.000
    Si5165   Si       0.81494    0.84756    0.78202    1.000
    N5166    N        0.81429    0.80041    0.83269    1.000
    Si5167   Si       0.83482    0.91735    0.81014    1.000
    N5168    N        0.83271    0.92420    0.85675    1.000
    Si5169   Si       0.81982    0.96478    0.86861    1.000
    N5170    N        0.86815    0.00904    0.80367    1.000
    Si5171   Si       0.87461    0.97463    0.77685    1.000
    N5172    N        0.83088    0.85582    0.87857    1.000
    N5173    N        0.81813    0.79121    0.90042    1.000
    Si5174   Si       0.82330    0.79487    0.97228    1.000
    N5175    N        0.83239    0.83360    0.95144    1.000
    Si5176   Si       0.84249    0.82551    0.91000    1.000
    Si5177   Si       0.82180    0.87558    0.95706    1.000
    Si5178   Si       0.82050    0.89711    0.88856    1.000
    N5179    N        0.85150    0.98811    0.88588    1.000
    N5180    N        0.83893    0.90291    0.92726    1.000
    N5181    N        0.84275    0.90076    0.99041    1.000
    N5182    N        0.86757    0.96367    0.94722    1.000
    Si5183   Si       0.84018    0.97617    0.97693    1.000
    N5184    N        0.90129    0.06430    0.08989    1.000
    N5185    N        0.90468    0.01913    0.04403    1.000
    Si5186   Si       0.92664    0.03065    0.07861    1.000
    N5187    N        0.91035    0.13077    0.02492    1.000
    Si5188   Si       0.92701    0.03377    0.01033    1.000
    Si5189   Si       0.92996    0.09228    0.11195    1.000
    N5190    N        0.87726    0.19467    0.02538    1.000
    Si5191   Si       0.89576    0.15745    0.09644    1.000
    Si5192   Si       0.90743    0.22983    0.10671    1.000
    Si5193   Si       0.91480    0.17308    0.03088    1.000
    N5194    N        0.89685    0.24255    0.06580    1.000
    N5195    N        0.88527    0.19492    0.11416    1.000
    Si5196   Si       0.90704    0.02744    0.14306    1.000
    N5197    N        0.91158    0.06211    0.23251    1.000
    N5198    N        0.91366    0.13014    0.12345    1.000
    Si5199   Si       0.90859    0.12996    0.16734    1.000
    Si5200   Si       0.87526    0.19076    0.20523    1.000
    N5201    N        0.90973    0.16839    0.19015    1.000
    N5202    N        0.87824    0.23335    0.22117    1.000
    N5203    N        0.89528    0.05370    0.29883    1.000
    Si5204   Si       0.89421    0.09711    0.30800    1.000
    Si5205   Si       0.90370    0.02789    0.33241    1.000
    Si5206   Si       0.88687    0.04143    0.25919    1.000
    N5207    N        0.87251    0.10856    0.34239    1.000
    Si5208   Si       0.88156    0.14718    0.26293    1.000
    N5209    N        0.89892    0.23481    0.29210    1.000
    N5210    N        0.88886    0.16531    0.30414    1.000
    Si5211   Si       0.91750    0.19518    0.29464    1.000
    N5212    N        0.92308    0.13853    0.24713    1.000
    Si5213   Si       0.91220    0.24076    0.24839    1.000
    Si5214   Si       0.92929    0.19274    0.36932    1.000
    N5215    N        0.88404    0.03845    0.37072    1.000
    N5216    N        0.88992    0.08223    0.48737    1.000
    Si5217   Si       0.90514    0.02758    0.40763    1.000
    Si5218   Si       0.89783    0.07589    0.44496    1.000
    N5219    N        0.88452    0.10426    0.41297    1.000
    N5220    N        0.92382    0.01787    0.49626    1.000
    Si5221   Si       0.87109    0.08202    0.37803    1.000
    N5222    N        0.87451    0.03925    0.43676    1.000
    N5223    N        0.89972    0.22685    0.37281    1.000
    Si5224   Si       0.88279    0.14639    0.41908    1.000
    N5225    N        0.89220    0.17696    0.45077    1.000
    Si5226   Si       0.92485    0.17812    0.47625    1.000
    N5227    N        0.89396    0.16461    0.37804    1.000
    Si5228   Si       0.91343    0.02936    0.57256    1.000
    N5229    N        0.91511    0.11599    0.54461    1.000
    N5230    N        0.89976    0.04560    0.61362    1.000
    Si5231   Si       0.92268    0.10576    0.50384    1.000
    N5232    N        0.87582    0.04241    0.55482    1.000
    Si5233   Si       0.88585    0.22155    0.52149    1.000
    N5234    N        0.90877    0.18510    0.51735    1.000
    Si5235   Si       0.90502    0.15780    0.54928    1.000
    N5236    N        0.88612    0.20935    0.61054    1.000
    N5237    N        0.91074    0.25363    0.50718    1.000
    Si5238   Si       0.89507    0.25292    0.59639    1.000
    Si5239   Si       0.92968    0.20139    0.60664    1.000
    Si5240   Si       0.92184    0.07329    0.64054    1.000
    N5241    N        0.90870    0.07068    0.72041    1.000
    N5242    N        0.88923    0.09200    0.66575    1.000
    Si5243   Si       0.91595    0.10766    0.69726    1.000
    N5244    N        0.87432    0.02321    0.67573    1.000
    Si5245   Si       0.87396    0.06134    0.69584    1.000
    Si5246   Si       0.87903    0.17167    0.71994    1.000
    N5247    N        0.89273    0.13206    0.72249    1.000
    N5248    N        0.89310    0.18914    0.68457    1.000
    N5249    N        0.90987    0.05466    0.84008    1.000
    Si5250   Si       0.89397    0.04551    0.79932    1.000
    Si5251   Si       0.89189    0.10509    0.75994    1.000
    N5252    N        0.92769    0.03218    0.77539    1.000
    N5253    N        0.87794    0.13359    0.79273    1.000
    Si5254   Si       0.91153    0.15046    0.81368    1.000
    N5255    N        0.89050    0.17336    0.84499    1.000
    N5256    N        0.88791    0.24005    0.83431    1.000
    N5257    N        0.88750    0.19665    0.75496    1.000
    Si5258   Si       0.92054    0.25131    0.80692    1.000
    Si5259   Si       0.87589    0.20918    0.86727    1.000
    Si5260   Si       0.89630    0.07193    0.87849    1.000
    Si5261   Si       0.88532    0.06900    0.94375    1.000
    N5262    N        0.90009    0.05261    0.98170    1.000
    N5263    N        0.88247    0.11445    0.95117    1.000
    N5264    N        0.92083    0.07968    0.91649    1.000
    Si5265   Si       0.92215    0.11965    0.93469    1.000
    N5266    N        0.87146    0.04854    0.90754    1.000
    N5267    N        0.89524    0.19487    0.95542    1.000
    Si5268   Si       0.88179    0.14599    0.87895    1.000
    N5269    N        0.91298    0.21599    0.89148    1.000
    N5270    N        0.91973    0.14787    0.90126    1.000
    Si5271   Si       0.91992    0.18672    0.92234    1.000
    N5272    N        0.89873    0.33671    0.06404    1.000
    Si5273   Si       0.88854    0.34231    0.10654    1.000
    Si5274   Si       0.88307    0.33750    0.02446    1.000
    N5275    N        0.91835    0.33783    0.00020    1.000
    N5276    N        0.92564    0.40726    0.07575    1.000
    Si5277   Si       0.90772    0.41082    0.11308    1.000
    N5278    N        0.92528    0.48206    0.00614    1.000
    N5279    N        0.88987    0.44942    0.11555    1.000
    Si5280   Si       0.88930    0.40722    0.00289    1.000
    N5281    N        0.90236    0.26871    0.12713    1.000
    N5282    N        0.91404    0.34143    0.23044    1.000
    Si5283   Si       0.87385    0.36202    0.22144    1.000
    N5284    N        0.87786    0.38139    0.12155    1.000
    Si5285   Si       0.91425    0.41376    0.24321    1.000
    Si5286   Si       0.90008    0.48312    0.14445    1.000
    N5287    N        0.88456    0.40201    0.21465    1.000
    Si5288   Si       0.89616    0.48286    0.21742    1.000
    N5289    N        0.92361    0.45590    0.23889    1.000
    N5290    N        0.90155    0.45697    0.17840    1.000
    N5291    N        0.91000    0.28670    0.34484    1.000
    N5292    N        0.88720    0.35243    0.32392    1.000
    N5293    N        0.88200    0.29475    0.27892    1.000
    Si5294   Si       0.91788    0.30860    0.25981    1.000
    Si5295   Si       0.88392    0.26890    0.31446    1.000
    Si5296   Si       0.91971    0.32761    0.33216    1.000
    Si5297   Si       0.87156    0.38352    0.29814    1.000
    N5298    N        0.90674    0.40542    0.28519    1.000
    N5299    N        0.91200    0.49529    0.36249    1.000
    N5300    N        0.88943    0.50580    0.25579    1.000
    N5301    N        0.89702    0.30204    0.46558    1.000
    Si5302   Si       0.90432    0.26747    0.38262    1.000
    N5303    N        0.90848    0.32870    0.41276    1.000
    Si5304   Si       0.87358    0.26851    0.48266    1.000
    Si5305   Si       0.87188    0.31281    0.42892    1.000
    Si5306   Si       0.89463    0.46049    0.47559    1.000
    Si5307   Si       0.89706    0.49354    0.40365    1.000
    Si5308   Si       0.89883    0.42179    0.41127    1.000
    N5309    N        0.90250    0.46026    0.43169    1.000
    N5310    N        0.89230    0.37221    0.54887    1.000
    N5311    N        0.87974    0.29124    0.58092    1.000
    Si5312   Si       0.88934    0.32678    0.50357    1.000
    Si5313   Si       0.88322    0.38108    0.58908    1.000
    N5314    N        0.93007    0.33374    0.51512    1.000
    N5315    N        0.87948    0.50073    0.60470    1.000
    Si5316   Si       0.87790    0.48931    0.56421    1.000
    N5317    N        0.90676    0.45710    0.56301    1.000
    Si5318   Si       0.91147    0.44312    0.60444    1.000
    N5319    N        0.92254    0.40016    0.59829    1.000
    N5320    N        0.89462    0.42660    0.50277    1.000
    N5321    N        0.92825    0.47692    0.50102    1.000
    Si5322   Si       0.92629    0.44186    0.52777    1.000
    N5323    N        0.89543    0.37545    0.67761    1.000
    Si5324   Si       0.90845    0.27813    0.67582    1.000
    N5325    N        0.89520    0.27145    0.63536    1.000
    N5326    N        0.89953    0.33627    0.73391    1.000
    Si5327   Si       0.92385    0.34795    0.69936    1.000
    N5328    N        0.87494    0.34951    0.61985    1.000
    Si5329   Si       0.91470    0.45052    0.73608    1.000
    N5330    N        0.88528    0.43757    0.63990    1.000
    Si5331   Si       0.90189    0.41790    0.67355    1.000
    N5332    N        0.92605    0.49721    0.66600    1.000
    N5333    N        0.88549    0.43627    0.70848    1.000
    Si5334   Si       0.88995    0.51305    0.64550    1.000
    N5335    N        0.90088    0.49154    0.74784    1.000
    N5336    N        0.90105    0.28304    0.78374    1.000
    N5337    N        0.90620    0.34711    0.80394    1.000
    Si5338   Si       0.91834    0.32115    0.76971    1.000
    Si5339   Si       0.86828    0.36344    0.81876    1.000
    N5340    N        0.91785    0.42509    0.77027    1.000
    Si5341   Si       0.89330    0.42014    0.86181    1.000
    N5342    N        0.88257    0.40491    0.82415    1.000
    Si5343   Si       0.87733    0.41064    0.78190    1.000
    N5344    N        0.88692    0.46275    0.86703    1.000
    N5345    N        0.91206    0.35133    0.91731    1.000
    N5346    N        0.89794    0.29276    0.95370    1.000
    Si5347   Si       0.90565    0.30949    0.91382    1.000
    Si5348   Si       0.87974    0.37678    0.92676    1.000
    N5349    N        0.87270    0.30048    0.88746    1.000
    N5350    N        0.87555    0.47807    0.95559    1.000
    N5351    N        0.88018    0.40613    0.95877    1.000
    Si5352   Si       0.91767    0.48828    0.88222    1.000
    Si5353   Si       0.88418    0.48140    0.99679    1.000
    N5354    N        0.91850    0.55973    0.10650    1.000
    N5355    N        0.91202    0.61420    0.05976    1.000
    N5356    N        0.88086    0.52042    0.07804    1.000
    Si5357   Si       0.92427    0.53265    0.07264    1.000
    Si5358   Si       0.92974    0.74686    0.11097    1.000
    N5359    N        0.89441    0.67570    0.08032    1.000
    Si5360   Si       0.89634    0.74047    0.03791    1.000
    Si5361   Si       0.92603    0.64609    0.08974    1.000
    Si5362   Si       0.87524    0.67383    0.04139    1.000
    N5363    N        0.89802    0.75282    0.07942    1.000
    N5364    N        0.88990    0.66328    0.00100    1.000
    N5365    N        0.92863    0.71317    0.03202    1.000
    Si5366   Si       0.87344    0.70101    0.10860    1.000
    N5367    N        0.91673    0.56502    0.24063    1.000
    N5368    N        0.92096    0.57483    0.17468    1.000
    N5369    N        0.88391    0.51841    0.19027    1.000
    Si5370   Si       0.92036    0.61654    0.16661    1.000
    Si5371   Si       0.89419    0.55686    0.20402    1.000
    N5372    N        0.88193    0.63300    0.18109    1.000
    Si5373   Si       0.90165    0.66085    0.21075    1.000
    N5374    N        0.88253    0.75015    0.18685    1.000
    N5375    N        0.92669    0.69791    0.20570    1.000
    N5376    N        0.90535    0.71908    0.13298    1.000
    Si5377   Si       0.91628    0.72674    0.17557    1.000
    N5378    N        0.90301    0.61157    0.31366    1.000
    N5379    N        0.89665    0.56456    0.36430    1.000
    Si5380   Si       0.89426    0.52785    0.33800    1.000
    Si5381   Si       0.92184    0.53133    0.26957    1.000
    Si5382   Si       0.87674    0.58466    0.33298    1.000
    Si5383   Si       0.92161    0.63349    0.27962    1.000
    Si5384   Si       0.92878    0.63601    0.33989    1.000
    N5385    N        0.89372    0.65017    0.25217    1.000
    Si5386   Si       0.90441    0.55397    0.45537    1.000
    N5387    N        0.91514    0.52826    0.42310    1.000
    Si5388   Si       0.92376    0.56275    0.39756    1.000
    Si5389   Si       0.87935    0.62522    0.44253    1.000
    N5390    N        0.90722    0.58970    0.42949    1.000
    N5391    N        0.86538    0.54277    0.47092    1.000
    Si5392   Si       0.92486    0.72467    0.37909    1.000
    N5393    N        0.88859    0.70449    0.39127    1.000
    N5394    N        0.90007    0.64076    0.37114    1.000
    N5395    N        0.90858    0.65600    0.44117    1.000
    Si5396   Si       0.91259    0.67056    0.40258    1.000
    Si5397   Si       0.89215    0.58412    0.56018    1.000
    N5398    N        0.88696    0.52134    0.53675    1.000
    N5399    N        0.89554    0.62502    0.54521    1.000
    N5400    N        0.87217    0.58040    0.59715    1.000
    Si5401   Si       0.92786    0.51780    0.52039    1.000
    Si5402   Si       0.89077    0.66685    0.55877    1.000
    N5403    N        0.92498    0.68504    0.54049    1.000
    N5404    N        0.90600    0.75518    0.61701    1.000
    N5405    N        0.89022    0.73037    0.50342    1.000
    Si5406   Si       0.92954    0.71552    0.50932    1.000
    N5407    N        0.87105    0.66530    0.59958    1.000
    N5408    N        0.90331    0.62335    0.64595    1.000
    Si5409   Si       0.88301    0.58596    0.63683    1.000
    N5410    N        0.89636    0.59083    0.71010    1.000
    N5411    N        0.90419    0.55194    0.65360    1.000
    Si5412   Si       0.92231    0.61293    0.68382    1.000
    Si5413   Si       0.92362    0.57176    0.73675    1.000
    Si5414   Si       0.88161    0.73210    0.64253    1.000
    Si5415   Si       0.88410    0.73850    0.71812    1.000
    N5416    N        0.92457    0.72217    0.71345    1.000
    N5417    N        0.90279    0.69547    0.65634    1.000
    Si5418   Si       0.90213    0.66265    0.62890    1.000
    Si5419   Si       0.90303    0.59741    0.84344    1.000
    N5420    N        0.90421    0.54959    0.76832    1.000
    N5421    N        0.88304    0.55691    0.83341    1.000
    Si5422   Si       0.92049    0.54131    0.81022    1.000
    N5423    N        0.92739    0.51672    0.84979    1.000
    Si5424   Si       0.87334    0.52295    0.75565    1.000
    N5425    N        0.92034    0.63790    0.85824    1.000
    Si5426   Si       0.88097    0.65851    0.85669    1.000
    N5427    N        0.88836    0.64767    0.76694    1.000
    N5428    N        0.90669    0.71122    0.77924    1.000
    Si5429   Si       0.90343    0.72914    0.81974    1.000
    N5430    N        0.88463    0.69977    0.84467    1.000
    Si5431   Si       0.89053    0.54112    0.87392    1.000
    N5432    N        0.92849    0.61010    0.99161    1.000
    N5433    N        0.91741    0.53915    0.97365    1.000
    N5434    N        0.90798    0.57937    0.88713    1.000
    N5435    N        0.90450    0.51901    0.91167    1.000
    Si5436   Si       0.88630    0.62177    0.98613    1.000
    Si5437   Si       0.87572    0.54703    0.98987    1.000
    N5438    N        0.90386    0.72915    0.97295    1.000
    Si5439   Si       0.92031    0.69348    0.99367    1.000
    Si5440   Si       0.90203    0.72788    0.92802    1.000
    Si5441   Si       0.89824    0.85391    0.07005    1.000
    N5442    N        0.89449    0.77533    0.01214    1.000
    N5443    N        0.90429    0.85586    0.11301    1.000
    N5444    N        0.87755    0.81746    0.06334    1.000
    N5445    N        0.89165    0.84795    0.00082    1.000
    Si5446   Si       0.87982    0.88887    0.00839    1.000
    N5447    N        0.88056    0.88948    0.05239    1.000
    N5448    N        0.90910    0.93238    0.09951    1.000
    N5449    N        0.91953    0.00198    0.10939    1.000
    Si5450   Si       0.87602    0.92505    0.07437    1.000
    N5451    N        0.92100    0.81603    0.18076    1.000
    Si5452   Si       0.91263    0.82032    0.13690    1.000
    Si5453   Si       0.91079    0.83490    0.21873    1.000
    N5454    N        0.87820    0.81184    0.23702    1.000
    N5455    N        0.90414    0.87919    0.21883    1.000
    N5456    N        0.87645    0.79496    0.13167    1.000
    N5457    N        0.91817    0.00672    0.17892    1.000
    Si5458   Si       0.91420    0.89736    0.12401    1.000
    Si5459   Si       0.88850    0.91135    0.19544    1.000
    N5460    N        0.92293    0.93779    0.19091    1.000
    N5461    N        0.87962    0.90164    0.15479    1.000
    N5462    N        0.90924    0.78988    0.29555    1.000
    N5463    N        0.90140    0.84759    0.35505    1.000
    N5464    N        0.90887    0.86968    0.29195    1.000
    Si5465   Si       0.89923    0.77534    0.25289    1.000
    N5466    N        0.90100    0.77271    0.36674    1.000
    Si5467   Si       0.88852    0.87915    0.32940    1.000
    Si5468   Si       0.92675    0.83115    0.29114    1.000
    Si5469   Si       0.90655    0.75983    0.32544    1.000
    N5470    N        0.89933    0.93686    0.26989    1.000
    N5471    N        0.89761    0.98890    0.31359    1.000
    N5472    N        0.90297    0.91280    0.35409    1.000
    Si5473   Si       0.91776    0.97416    0.27860    1.000
    Si5474   Si       0.91736    0.89664    0.25711    1.000
    N5475    N        0.90801    0.00384    0.24763    1.000
    Si5476   Si       0.92256    0.78788    0.40223    1.000
    N5477    N        0.88809    0.80948    0.41689    1.000
    N5478    N        0.87616    0.78917    0.48581    1.000
    Si5479   Si       0.87251    0.83525    0.38553    1.000
    Si5480   Si       0.88541    0.90864    0.39342    1.000
    Si5481   Si       0.91701    0.97858    0.48031    1.000
    N5482    N        0.89232    0.97000    0.44411    1.000
    N5483    N        0.91745    0.91390    0.42026    1.000
    Si5484   Si       0.89460    0.80271    0.52070    1.000
    N5485    N        0.89030    0.84696    0.52479    1.000
    Si5486   Si       0.87942    0.80806    0.59336    1.000
    N5487    N        0.92172    0.81511    0.59803    1.000
    N5488    N        0.87163    0.78946    0.55455    1.000
    N5489    N        0.90779    0.95240    0.51253    1.000
    Si5490   Si       0.90011    0.95694    0.55455    1.000
    N5491    N        0.91830    0.91627    0.56238    1.000
    N5492    N        0.92053    0.98690    0.57623    1.000
    Si5493   Si       0.93076    0.91410    0.60390    1.000
    N5494    N        0.90999    0.80816    0.66799    1.000
    N5495    N        0.88223    0.77538    0.74056    1.000
    N5496    N        0.91755    0.83877    0.73028    1.000
    Si5497   Si       0.91614    0.88146    0.73238    1.000
    Si5498   Si       0.92895    0.78726    0.63351    1.000
    Si5499   Si       0.88441    0.89991    0.66584    1.000
    N5500    N        0.92024    0.88867    0.68871    1.000
    N5501    N        0.90248    0.96023    0.69475    1.000
    Si5502   Si       0.89626    0.98646    0.66219    1.000
    N5503    N        0.88600    0.91051    0.74426    1.000
    N5504    N        0.89565    0.91940    0.62760    1.000
    N5505    N        0.87859    0.82294    0.83168    1.000
    Si5506   Si       0.92186    0.81884    0.83049    1.000
    Si5507   Si       0.91696    0.79878    0.75182    1.000
    N5508    N        0.88806    0.88455    0.86139    1.000
    Si5509   Si       0.90858    0.92394    0.78239    1.000
    Si5510   Si       0.88643    0.92593    0.84745    1.000
    N5511    N        0.91570    0.96822    0.76525    1.000
    N5512    N        0.90640    0.95383    0.87594    1.000
    N5513    N        0.93037    0.92309    0.82284    1.000
    N5514    N        0.87235    0.93827    0.80536    1.000
    Si5515   Si       0.90775    0.79022    0.90009    1.000
    N5516    N        0.88709    0.82864    0.90579    1.000
    Si5517   Si       0.90462    0.87129    0.89955    1.000
    Si5518   Si       0.92395    0.76933    0.98028    1.000
    N5519    N        0.92865    0.77288    0.93405    1.000
    N5520    N        0.87845    0.75382    0.90118    1.000
    N5521    N        0.90734    0.90907    0.92203    1.000
    Si5522   Si       0.87603    0.92046    0.94923    1.000
    Si5523   Si       0.88697    0.97705    0.91062    1.000
    N5524    N        0.90387    0.91651    0.98582    1.000
    N5525    N        0.96961    0.03769    0.07287    1.000
    N5526    N        0.95148    0.06815    0.02061    1.000
    N5527    N        0.96185    0.10383    0.08675    1.000
    Si5528   Si       0.97739    0.07585    0.05545    1.000
    Si5529   Si       0.94400    0.10927    0.00811    1.000
    N5530    N        0.98065    0.12727    0.03099    1.000
    Si5531   Si       0.96677    0.14301    0.07035    1.000
    N5532    N        0.96676    0.23369    0.04990    1.000
    N5533    N        0.94793    0.22670    0.11346    1.000
    Si5534   Si       0.96294    0.20332    0.08169    1.000
    Si5535   Si       0.95521    0.22921    0.00597    1.000
    N5536    N        0.94708    0.18580    0.00417    1.000
    N5537    N        0.93197    0.17039    0.07176    1.000
    Si5538   Si       0.96182    0.06953    0.17650    1.000
    N5539    N        0.97087    0.03779    0.21104    1.000
    N5540    N        0.93931    0.10639    0.18653    1.000
    N5541    N        0.93790    0.05860    0.14224    1.000
    N5542    N        0.97217    0.09890    0.24236    1.000
    Si5543   Si       0.92815    0.02515    0.21633    1.000
    Si5544   Si       0.92836    0.10076    0.22795    1.000
    N5545    N        0.98034    0.16039    0.21075    1.000
    Si5546   Si       0.98192    0.24370    0.13641    1.000
    Si5547   Si       0.94004    0.16989    0.22095    1.000
    Si5548   Si       0.96267    0.07062    0.31806    1.000
    N5549    N        0.94454    0.03873    0.34221    1.000
    Si5550   Si       0.95587    0.12494    0.27496    1.000
    N5551    N        0.97407    0.04256    0.28509    1.000
    N5552    N        0.93669    0.10396    0.30713    1.000
    N5553    N        0.93069    0.19975    0.25144    1.000
    N5554    N        0.94501    0.19305    0.32732    1.000
    Si5555   Si       0.96557    0.01903    0.37523    1.000
    Si5556   Si       0.97993    0.11334    0.48053    1.000
    Si5557   Si       0.97437    0.05900    0.43413    1.000
    N5558    N        0.98622    0.02892    0.46444    1.000
    N5559    N        0.93275    0.05780    0.42395    1.000
    N5560    N        0.94067    0.13612    0.47831    1.000
    Si5561   Si       0.95038    0.24530    0.49318    1.000
    Si5562   Si       0.95776    0.23061    0.42472    1.000
    N5563    N        0.96152    0.19693    0.39873    1.000
    N5564    N        0.94646    0.21379    0.46427    1.000
    N5565    N        0.94691    0.05420    0.56484    1.000
    Si5566   Si       0.94356    0.09909    0.57279    1.000
    N5567    N        0.98287    0.11864    0.56877    1.000
    Si5568   Si       0.98465    0.03488    0.56085    1.000
    N5569    N        0.93290    0.10270    0.61324    1.000
    N5570    N        0.98525    0.00739    0.59494    1.000
    Si5571   Si       0.96243    0.03611    0.49860    1.000
    N5572    N        0.98081    0.00846    0.52647    1.000
    N5573    N        0.95831    0.07977    0.50246    1.000
    N5574    N        0.93589    0.23960    0.58662    1.000
    Si5575   Si       0.98123    0.16193    0.57489    1.000
    Si5576   Si       0.96878    0.25013    0.56121    1.000
    N5577    N        0.97981    0.23523    0.52100    1.000
    N5578    N        0.93906    0.17186    0.57501    1.000
    N5579    N        0.98234    0.06669    0.72892    1.000
    Si5580   Si       0.96383    0.01721    0.67277    1.000
    Si5581   Si       0.98072    0.08723    0.69116    1.000
    N5582    N        0.95470    0.05972    0.66780    1.000
    N5583    N        0.95543    0.12219    0.69386    1.000
    Si5584   Si       0.94299    0.04807    0.73832    1.000
    N5585    N        0.94906    0.00920    0.71465    1.000
    Si5586   Si       0.93392    0.20858    0.68580    1.000
    N5587    N        0.94813    0.18469    0.72035    1.000
    N5588    N        0.93989    0.25077    0.69091    1.000
    Si5589   Si       0.97954    0.15657    0.70929    1.000
    N5590    N        0.94796    0.19529    0.64508    1.000
    Si5591   Si       0.99104    0.20016    0.64441    1.000
    Si5592   Si       0.95738    0.09600    0.80822    1.000
    Si5593   Si       0.94848    0.03579    0.84066    1.000
    N5594    N        0.97590    0.05769    0.81461    1.000
    N5595    N        0.93722    0.12150    0.83680    1.000
    N5596    N        0.93178    0.09951    0.77453    1.000
    N5597    N        0.94330    0.17030    0.79225    1.000
    N5598    N        0.94470    0.23530    0.77148    1.000
    N5599    N        0.97887    0.16907    0.85494    1.000
    Si5600   Si       0.98161    0.15963    0.81182    1.000
    N5601    N        0.95222    0.25119    0.83754    1.000
    Si5602   Si       0.93262    0.19595    0.76042    1.000
    N5603    N        0.97012    0.04324    0.87664    1.000
    N5604    N        0.97758    0.11052    0.89617    1.000
    Si5605   Si       0.96270    0.06863    0.91059    1.000
    N5606    N        0.97648    0.04519    0.94219    1.000
    N5607    N        0.94905    0.12376    0.96814    1.000
    Si5608   Si       0.95271    0.13760    0.87390    1.000
    Si5609   Si       0.96611    0.16312    0.97186    1.000
    N5610    N        0.97941    0.23133    0.89430    1.000
    N5611    N        0.96071    0.18690    0.93714    1.000
    Si5612   Si       0.93945    0.24631    0.87951    1.000
    N5613    N        0.98113    0.23860    0.97526    1.000
    N5614    N        0.96653    0.35628    0.04437    1.000
    N5615    N        0.95237    0.29284    0.07617    1.000
    Si5616   Si       0.94161    0.33547    0.07138    1.000
    Si5617   Si       0.94993    0.36732    0.00487    1.000
    N5618    N        0.93119    0.33733    0.11870    1.000
    N5619    N        0.93037    0.26548    0.01038    1.000
    Si5620   Si       0.93661    0.29296    0.11795    1.000
    Si5621   Si       0.93182    0.26310    0.05253    1.000
    N5622    N        0.97349    0.44859    0.03056    1.000
    Si5623   Si       0.95619    0.41060    0.04783    1.000
    Si5624   Si       0.98109    0.48897    0.04754    1.000
    N5625    N        0.95724    0.50275    0.07960    1.000
    Si5626   Si       0.97455    0.50568    0.11898    1.000
    N5627    N        0.93309    0.40801    0.00793    1.000
    N5628    N        0.94022    0.27314    0.24496    1.000
    Si5629   Si       0.98444    0.26494    0.23847    1.000
    N5630    N        0.96971    0.28372    0.14495    1.000
    Si5631   Si       0.95960    0.36478    0.13962    1.000
    N5632    N        0.96790    0.34435    0.17730    1.000
    Si5633   Si       0.95378    0.35603    0.21673    1.000
    Si5634   Si       0.99113    0.30774    0.17287    1.000
    N5635    N        0.98381    0.34641    0.24600    1.000
    Si5636   Si       0.93822    0.43066    0.18008    1.000
    N5637    N        0.97455    0.45179    0.19007    1.000
    Si5638   Si       0.98408    0.42332    0.22072    1.000
    N5639    N        0.94726    0.40057    0.21515    1.000
    N5640    N        0.93814    0.40325    0.14469    1.000
    N5641    N        0.93690    0.50595    0.14230    1.000
    N5642    N        0.94087    0.32123    0.29403    1.000
    N5643    N        0.94748    0.34362    0.36130    1.000
    Si5644   Si       0.98022    0.36494    0.34196    1.000
    Si5645   Si       0.98173    0.32452    0.28422    1.000
    N5646    N        0.95756    0.51152    0.25270    1.000
    N5647    N        0.98150    0.50536    0.33896    1.000
    Si5648   Si       0.95093    0.47308    0.35014    1.000
    N5649    N        0.96991    0.39476    0.30966    1.000
    Si5650   Si       0.95414    0.46974    0.26566    1.000
    N5651    N        0.94714    0.46142    0.30732    1.000
    Si5652   Si       0.93314    0.41942    0.31571    1.000
    N5653    N        0.93071    0.42744    0.35796    1.000
    Si5654   Si       0.93310    0.30235    0.44330    1.000
    N5655    N        0.93685    0.26906    0.41503    1.000
    N5656    N        0.96137    0.28585    0.47775    1.000
    N5657    N        0.96376    0.33552    0.43669    1.000
    Si5658   Si       0.94148    0.35481    0.40349    1.000
    N5659    N        0.98053    0.45511    0.38478    1.000
    N5660    N        0.93331    0.39614    0.41209    1.000
    Si5661   Si       0.96203    0.41595    0.38531    1.000
    Si5662   Si       0.96604    0.31115    0.51247    1.000
    N5663    N        0.96335    0.35725    0.57452    1.000
    N5664    N        0.97019    0.29359    0.55182    1.000
    Si5665   Si       0.98347    0.32057    0.58189    1.000
    Si5666   Si       0.93624    0.36929    0.54363    1.000
    Si5667   Si       0.96409    0.38865    0.60638    1.000
    N5668    N        0.95259    0.40552    0.52914    1.000
    N5669    N        0.94955    0.46386    0.61481    1.000
    Si5670   Si       0.98410    0.45919    0.59158    1.000
    N5671    N        0.98680    0.45791    0.54774    1.000
    Si5672   Si       0.98262    0.26079    0.69121    1.000
    N5673    N        0.96411    0.36310    0.70931    1.000
    Si5674   Si       0.97227    0.32431    0.65492    1.000
    N5675    N        0.97108    0.36531    0.64243    1.000
    Si5676   Si       0.98431    0.33100    0.72907    1.000
    N5677    N        0.93269    0.31528    0.67439    1.000
    N5678    N        0.98215    0.30054    0.61978    1.000
    N5679    N        0.95403    0.46756    0.72805    1.000
    Si5680   Si       0.97510    0.39079    0.67762    1.000
    Si5681   Si       0.95238    0.46562    0.65993    1.000
    N5682    N        0.94715    0.42285    0.67147    1.000
    N5683    N        0.95144    0.34088    0.85728    1.000
    N5684    N        0.96056    0.30745    0.75545    1.000
    Si5685   Si       0.93726    0.36985    0.82935    1.000
    Si5686   Si       0.97617    0.26603    0.76557    1.000
    N5687    N        0.96473    0.38512    0.80258    1.000
    N5688    N        0.94834    0.44843    0.82906    1.000
    Si5689   Si       0.95489    0.48933    0.82838    1.000
    Si5690   Si       0.95444    0.42630    0.79219    1.000
    N5691    N        0.93048    0.39794    0.86397    1.000
    Si5692   Si       0.96202    0.42931    0.87047    1.000
    Si5693   Si       0.94540    0.50657    0.74634    1.000
    Si5694   Si       0.93028    0.29928    0.98335    1.000
    Si5695   Si       0.96896    0.31010    0.88238    1.000
    N5696    N        0.97343    0.30842    0.97436    1.000
    Si5697   Si       0.94896    0.36862    0.89423    1.000
    N5698    N        0.93696    0.28530    0.89565    1.000
    N5699    N        0.97611    0.33967    0.91260    1.000
    N5700    N        0.97837    0.37666    0.97344    1.000
    N5701    N        0.97404    0.45007    0.95644    1.000
    Si5702   Si       0.98127    0.47909    0.92398    1.000
    N5703    N        0.95249    0.46599    0.89146    1.000
    N5704    N        0.97246    0.40598    0.90637    1.000
    Si5705   Si       0.95123    0.44921    0.99379    1.000
    Si5706   Si       0.98984    0.41049    0.94595    1.000
    N5707    N        0.98039    0.60164    0.03448    1.000
    Si5708   Si       0.94230    0.52221    0.00369    1.000
    Si5709   Si       0.93790    0.59285    0.02887    1.000
    N5710    N        0.98343    0.51187    0.01026    1.000
    N5711    N        0.93431    0.55053    0.03568    1.000
    Si5712   Si       0.96167    0.70341    0.05983    1.000
    N5713    N        0.96176    0.66207    0.06846    1.000
    N5714    N        0.96545    0.73222    0.09292    1.000
    N5715    N        0.98318    0.54837    0.12756    1.000
    Si5716   Si       0.94083    0.55209    0.14239    1.000
    N5717    N        0.97947    0.57184    0.21743    1.000
    Si5718   Si       0.94506    0.59584    0.22838    1.000
    Si5719   Si       0.98872    0.53305    0.23206    1.000
    N5720    N        0.93543    0.63211    0.12899    1.000
    N5721    N        0.94018    0.63238    0.20432    1.000
    Si5722   Si       0.97307    0.65998    0.20244    1.000
    N5723    N        0.98983    0.70347    0.21443    1.000
    Si5724   Si       0.97750    0.63671    0.13496    1.000
    N5725    N        0.95646    0.74553    0.16763    1.000
    N5726    N        0.98064    0.67150    0.16064    1.000
    Si5727   Si       0.95316    0.71921    0.23324    1.000
    Si5728   Si       0.98720    0.71180    0.17039    1.000
    N5729    N        0.95504    0.60737    0.26928    1.000
    Si5730   Si       0.96360    0.54247    0.33910    1.000
    N5731    N        0.92808    0.53616    0.31185    1.000
    N5732    N        0.96859    0.63501    0.36001    1.000
    N5733    N        0.98649    0.57617    0.32437    1.000
    Si5734   Si       0.95789    0.70052    0.31226    1.000
    N5735    N        0.97357    0.70809    0.27193    1.000
    N5736    N        0.93462    0.66393    0.30715    1.000
    N5737    N        0.93430    0.72819    0.33429    1.000
    N5738    N        0.93395    0.54586    0.48757    1.000
    N5739    N        0.96401    0.55641    0.38401    1.000
    Si5740   Si       0.97791    0.55272    0.49097    1.000
    N5741    N        0.94977    0.63230    0.49439    1.000
    N5742    N        0.98598    0.57711    0.45521    1.000
    Si5743   Si       0.98318    0.67182    0.37301    1.000
    N5744    N        0.98331    0.65012    0.44544    1.000
    N5745    N        0.94917    0.69029    0.39230    1.000
    Si5746   Si       0.94592    0.66294    0.46364    1.000
    Si5747   Si       0.96395    0.73469    0.44734    1.000
    N5748    N        0.93891    0.74849    0.41473    1.000
    N5749    N        0.94845    0.70409    0.47152    1.000
    Si5750   Si       0.97420    0.55915    0.56079    1.000
    N5751    N        0.96467    0.52069    0.54510    1.000
    Si5752   Si       0.93834    0.61875    0.53253    1.000
    N5753    N        0.93425    0.57805    0.55118    1.000
    N5754    N        0.97029    0.63349    0.55630    1.000
    Si5755   Si       0.95570    0.67304    0.56861    1.000
    N5756    N        0.96039    0.73954    0.52903    1.000
    N5757    N        0.93492    0.66573    0.60301    1.000
    N5758    N        0.99020    0.69974    0.57307    1.000
    N5759    N        0.97774    0.53524    0.64927    1.000
    N5760    N        0.94371    0.54024    0.71693    1.000
    N5761    N        0.95489    0.58685    0.67104    1.000
    Si5762   Si       0.94074    0.53919    0.67195    1.000
    Si5763   Si       0.98620    0.57665    0.64130    1.000
    N5764    N        0.95104    0.60346    0.74555    1.000
    Si5765   Si       0.96029    0.74872    0.69497    1.000
    N5766    N        0.97347    0.70466    0.68207    1.000
    Si5767   Si       0.93234    0.68835    0.68662    1.000
    N5768    N        0.92700    0.65177    0.70437    1.000
    Si5769   Si       0.97983    0.58965    0.81179    1.000
    N5770    N        0.93832    0.58153    0.82106    1.000
    N5771    N        0.95172    0.51231    0.79059    1.000
    N5772    N        0.97982    0.63387    0.81272    1.000
    N5773    N        0.94187    0.73728    0.83597    1.000
    N5774    N        0.96888    0.74476    0.76907    1.000
    Si5775   Si       0.96116    0.64689    0.84856    1.000
    N5776    N        0.95877    0.67360    0.76153    1.000
    N5777    N        0.97954    0.68331    0.86020    1.000
    Si5778   Si       0.94203    0.71375    0.75505    1.000
    Si5779   Si       0.92843    0.64208    0.74937    1.000
    N5780    N        0.97427    0.61640    0.87517    1.000
    Si5781   Si       0.94189    0.60645    0.89924    1.000
    N5782    N        0.95702    0.58128    0.93344    1.000
    N5783    N        0.97012    0.51976    0.93178    1.000
    Si5784   Si       0.95533    0.61740    0.96111    1.000
    Si5785   Si       0.93286    0.54323    0.93386    1.000
    N5786    N        0.93825    0.64109    0.92723    1.000
    Si5787   Si       0.98810    0.71250    0.99085    1.000
    Si5788   Si       0.96021    0.72210    0.87206    1.000
    N5789    N        0.93678    0.70955    0.90841    1.000
    N5790    N        0.98195    0.75416    0.89026    1.000
    N5791    N        0.95720    0.68343    0.97499    1.000
    N5792    N        0.97549    0.74836    0.97224    1.000
    Si5793   Si       0.95851    0.67965    0.93051    1.000
    Si5794   Si       0.97033    0.86754    0.07443    1.000
    N5795    N        0.93791    0.85729    0.04895    1.000
    Si5796   Si       0.98193    0.80556    0.11143    1.000
    Si5797   Si       0.93696    0.84352    0.00719    1.000
    N5798    N        0.94208    0.79074    0.12054    1.000
    N5799    N        0.95081    0.80467    0.99627    1.000
    N5800    N        0.95770    0.88916    0.11275    1.000
    N5801    N        0.97317    0.93713    0.00967    1.000
    N5802    N        0.96810    0.96680    0.06927    1.000
    Si5803   Si       0.97157    0.97619    0.02628    1.000
    Si5804   Si       0.93764    0.96417    0.09948    1.000
    N5805    N        0.93740    0.75934    0.24015    1.000
    N5806    N        0.98409    0.82336    0.15150    1.000
    Si5807   Si       0.95807    0.79035    0.17143    1.000
    N5808    N        0.98656    0.79512    0.20701    1.000
    Si5809   Si       0.94358    0.97170    0.17202    1.000
    N5810    N        0.97461    0.96956    0.20194    1.000
    N5811    N        0.98719    0.90736    0.17603    1.000
    N5812    N        0.96061    0.95566    0.13598    1.000
    Si5813   Si       0.98221    0.91805    0.13465    1.000
    Si5814   Si       0.96167    0.92549    0.20679    1.000
    N5815    N        0.95703    0.82989    0.32122    1.000
    Si5816   Si       0.94396    0.84144    0.35975    1.000
    N5817    N        0.94146    0.82654    0.24886    1.000
    Si5818   Si       0.96638    0.79092    0.24435    1.000
    Si5819   Si       0.98105    0.00584    0.30819    1.000
    N5820    N        0.96695    0.91398    0.31914    1.000
    N5821    N        0.96040    0.97398    0.28614    1.000
    Si5822   Si       0.97595    0.93386    0.28256    1.000
    Si5823   Si       0.94865    0.91294    0.35638    1.000
    N5824    N        0.95944    0.91175    0.24811    1.000
    N5825    N        0.97349    0.76983    0.47168    1.000
    N5826    N        0.95719    0.81047    0.38802    1.000
    Si5827   Si       0.98301    0.86973    0.48212    1.000
    N5828    N        0.95715    0.87711    0.37980    1.000
    N5829    N        0.93470    0.99598    0.39811    1.000
    N5830    N        0.95362    0.96619    0.45941    1.000
    Si5831   Si       0.95944    0.90056    0.41604    1.000
    N5832    N        0.96608    0.93721    0.39276    1.000
    Si5833   Si       0.93085    0.95866    0.42069    1.000
    N5834    N        0.96033    0.86301    0.55496    1.000
    Si5835   Si       0.96963    0.77889    0.51273    1.000
    Si5836   Si       0.95368    0.84490    0.59189    1.000
    N5837    N        0.93864    0.80755    0.51770    1.000
    Si5838   Si       0.93379    0.84996    0.52338    1.000
    N5839    N        0.94554    0.87681    0.62031    1.000
    N5840    N        0.96257    0.94239    0.61062    1.000
    N5841    N        0.97529    0.93638    0.53129    1.000
    Si5842   Si       0.95050    0.98345    0.60594    1.000
    Si5843   Si       0.93568    0.91961    0.52118    1.000
    N5844    N        0.94400    0.88274    0.49815    1.000
    N5845    N        0.94546    0.78299    0.72110    1.000
    N5846    N        0.97126    0.83862    0.67356    1.000
    Si5847   Si       0.93949    0.82018    0.69738    1.000
    Si5848   Si       0.95439    0.87893    0.66314    1.000
    N5849    N        0.96068    0.76565    0.65387    1.000
    Si5850   Si       0.98411    0.77804    0.74530    1.000
    Si5851   Si       0.93468    0.97014    0.72274    1.000
    N5852    N        0.98637    0.90805    0.66214    1.000
    N5853    N        0.96862    0.94268    0.72648    1.000
    N5854    N        0.93677    0.99444    0.64725    1.000
    N5855    N        0.94568    0.85502    0.83091    1.000
    Si5856   Si       0.98041    0.78936    0.86531    1.000
    Si5857   Si       0.96298    0.76456    0.80654    1.000
    N5858    N        0.93596    0.80028    0.86748    1.000
    N5859    N        0.93255    0.79639    0.79332    1.000
    Si5860   Si       0.95578    0.88859    0.80863    1.000
    Si5861   Si       0.94456    0.99291    0.78606    1.000
    N5862    N        0.94527    0.99498    0.82851    1.000
    Si5863   Si       0.94137    0.95951    0.84953    1.000
    N5864    N        0.94062    0.89578    0.76768    1.000
    N5865    N        0.98624    0.99528    0.77294    1.000
    Si5866   Si       0.98407    0.91109    0.75791    1.000
    Si5867   Si       0.96921    0.85616    0.86991    1.000
    N5868    N        0.95538    0.87122    0.98063    1.000
    N5869    N        0.94681    0.86338    0.90631    1.000
    Si5870   Si       0.97073    0.87699    0.93968    1.000
    Si5871   Si       0.99013    0.79073    0.98259    1.000
    Si5872   Si       0.97030    0.76377    0.93136    1.000
    N5873    N        0.93114    0.98034    0.92979    1.000
    Si5874   Si       0.96180    0.00304    0.95284    1.000
    Si5875   Si       0.94682    0.91591    0.98249    1.000
    N5876    N        0.96915    0.94749    0.87997    1.000
    Si5877   Si       0.93911    0.93960    0.91356    1.000
    N5878    N        0.96916    0.92215    0.94465    1.000
    N5879    N        0.95038    0.00045    0.99599    1.000
