# CIF file generated by openbabel 3.1.1, see https://openbabel.org
data_I
_chemical_name_common '3.01-10.aims'
_cell_length_a 39.9195
_cell_length_b 39.9195
_cell_length_c 39.9195
_cell_angle_alpha 90
_cell_angle_beta 90
_cell_angle_gamma 90
loop_
    _atom_site_label
    _atom_site_type_symbol
    _atom_site_fract_x
    _atom_site_fract_y
    _atom_site_fract_z
    _atom_site_occupancy
    N0       N        0.02012    0.06980    0.08125    1.000
    Si1      Si       0.02034    0.02690    0.10011    1.000
    Si2      Si       0.01934    0.04900    0.03338    1.000
    N3       N        0.03249    0.08751    0.01470    1.000
    N4       N        0.04097    0.01789    0.05712    1.000
    N5       N        0.03874    0.13302    0.06822    1.000
    N6       N        0.01096    0.02508    0.99552    1.000
    Si7      Si       0.99816    0.17284    0.01622    1.000
    N8       N        0.03759    0.16115    0.00396    1.000
    Si9      Si       0.01937    0.16710    0.08725    1.000
    N10      N        0.99375    0.18319    0.05687    1.000
    N11      N        0.04057    0.02029    0.19880    1.000
    N12      N        0.99580    0.11666    0.17228    1.000
    N13      N        0.00816    0.04482    0.14156    1.000
    Si14     Si       0.00610    0.01893    0.17484    1.000
    Si15     Si       0.00367    0.08568    0.14318    1.000
    N16      N        0.04454    0.10410    0.13659    1.000
    Si17     Si       0.02784    0.14046    0.15437    1.000
    N18      N        0.00168    0.15851    0.12458    1.000
    Si19     Si       0.98957    0.24155    0.17557    1.000
    N20      N        0.00680    0.20805    0.19613    1.000
    Si21     Si       0.02551    0.08364    0.28315    1.000
    N22      N        0.00956    0.05207    0.35480    1.000
    N23      N        0.03220    0.12057    0.25887    1.000
    Si24     Si       0.04812    0.12553    0.34068    1.000
    N25      N        0.04876    0.05179    0.26377    1.000
    Si26     Si       0.03956    0.00974    0.28211    1.000
    N27      N        0.99695    0.00829    0.27299    1.000
    N28      N        0.01133    0.13611    0.36444    1.000
    N29      N        0.01020    0.19513    0.26075    1.000
    Si30     Si       0.01552    0.15383    0.28069    1.000
    Si31     Si       0.03832    0.22782    0.25925    1.000
    N32      N        0.00206    0.23799    0.36460    1.000
    N33      N        0.04744    0.15739    0.31108    1.000
    Si34     Si       0.03590    0.03433    0.46783    1.000
    N35      N        0.00489    0.05879    0.45122    1.000
    Si36     Si       0.03289    0.09386    0.45564    1.000
    N37      N        0.04399    0.11429    0.42167    1.000
    N38      N        0.02170    0.18680    0.40908    1.000
    N39      N        0.99321    0.24489    0.43405    1.000
    N40      N        0.00639    0.15797    0.46254    1.000
    Si41     Si       0.01469    0.14392    0.41004    1.000
    Si42     Si       0.03492    0.21179    0.37712    1.000
    N43      N        0.02579    0.22046    0.48150    1.000
    Si44     Si       0.00104    0.20011    0.44811    1.000
    N45      N        0.02597    0.03556    0.50957    1.000
    Si46     Si       0.02392    0.07750    0.52785    1.000
    N47      N        0.03226    0.10616    0.49545    1.000
    N48      N        0.03193    0.13439    0.60760    1.000
    Si49     Si       0.00991    0.16041    0.57896    1.000
    Si50     Si       0.01808    0.23625    0.58631    1.000
    N51      N        0.03345    0.19646    0.59434    1.000
    N52      N        0.00376    0.15448    0.53526    1.000
    Si53     Si       0.02783    0.14965    0.49951    1.000
    N54      N        0.99475    0.24843    0.62148    1.000
    N55      N        0.02977    0.04212    0.62189    1.000
    N56      N        0.00665    0.06646    0.73175    1.000
    Si57     Si       0.01378    0.10863    0.63756    1.000
    Si58     Si       0.03911    0.08876    0.70984    1.000
    N59      N        0.04467    0.08960    0.66428    1.000
    Si60     Si       0.03958    0.21661    0.72730    1.000
    N61      N        0.04019    0.13183    0.71762    1.000
    N62      N        0.99732    0.14073    0.66230    1.000
    Si63     Si       0.02569    0.15948    0.68687    1.000
    N64      N        0.00771    0.19300    0.71095    1.000
    Si65     Si       0.00717    0.08499    0.81228    1.000
    N66      N        0.02668    0.12123    0.82638    1.000
    N67      N        0.03876    0.06146    0.79287    1.000
    Si68     Si       0.02727    0.03581    0.75686    1.000
    Si69     Si       0.02800    0.13205    0.86922    1.000
    Si70     Si       0.02180    0.19646    0.83703    1.000
    N71      N        0.03220    0.23990    0.83611    1.000
    N72      N        0.04430    0.23957    0.76643    1.000
    Si73     Si       0.01773    0.25444    0.79789    1.000
    N74      N        0.03653    0.17361    0.86961    1.000
    Si75     Si       0.03876    0.26088    0.87201    1.000
    Si76     Si       0.00411    0.04865    0.95719    1.000
    N77      N        0.03988    0.04521    0.93061    1.000
    N78      N        0.04032    0.23529    0.90840    1.000
    Si79     Si       0.03713    0.19277    0.90877    1.000
    N80      N        0.99537    0.18605    0.92261    1.000
    N81      N        0.02644    0.22034    0.97550    1.000
    N82      N        0.01593    0.30026    0.08064    1.000
    N83      N        0.01821    0.36620    0.03974    1.000
    Si84     Si       0.99864    0.33482    0.06421    1.000
    Si85     Si       0.00004    0.29763    0.12322    1.000
    Si86     Si       0.00579    0.38537    0.00112    1.000
    N87      N        0.01883    0.49485    0.07900    1.000
    N88      N        0.03152    0.43576    0.06837    1.000
    N89      N        0.01861    0.48259    0.01340    1.000
    Si90     Si       0.00428    0.46565    0.05066    1.000
    N91      N        0.04029    0.41256    0.00447    1.000
    Si92     Si       0.04482    0.40040    0.04642    1.000
    Si93     Si       0.01859    0.29384    0.22546    1.000
    N94      N        0.01222    0.33553    0.13971    1.000
    N95      N        0.01347    0.26251    0.14443    1.000
    N96      N        0.04372    0.31605    0.19931    1.000
    Si97     Si       0.00869    0.48911    0.20012    1.000
    N98      N        0.01685    0.44727    0.19351    1.000
    N99      N        0.00730    0.40795    0.14531    1.000
    Si100    Si       0.04096    0.43683    0.15569    1.000
    N101     N        0.99165    0.50740    0.23592    1.000
    Si102    Si       0.02751    0.30770    0.28509    1.000
    Si103    Si       0.02119    0.31862    0.34741    1.000
    N104     N        0.03275    0.27117    0.25978    1.000
    Si105    Si       0.03696    0.36314    0.25377    1.000
    N106     N        0.00825    0.33047    0.25131    1.000
    N107     N        0.99334    0.31970    0.31330    1.000
    N108     N        0.04011    0.35723    0.34749    1.000
    N109     N        0.05026    0.29262    0.32222    1.000
    N110     N        0.01542    0.44609    0.32001    1.000
    N111     N        0.01413    0.39473    0.27340    1.000
    Si112    Si       0.03936    0.42604    0.29202    1.000
    Si113    Si       0.99981    0.44975    0.36209    1.000
    N114     N        0.04797    0.50385    0.36009    1.000
    N115     N        0.00844    0.50963    0.30059    1.000
    N116     N        0.03815    0.36275    0.41846    1.000
    N117     N        0.00829    0.30252    0.38579    1.000
    Si118    Si       0.00879    0.36580    0.45213    1.000
    N119     N        0.01968    0.33525    0.47968    1.000
    Si120    Si       0.02120    0.26536    0.40384    1.000
    N121     N        0.04451    0.28029    0.44491    1.000
    Si122    Si       0.01349    0.26024    0.47039    1.000
    N123     N        0.99958    0.47336    0.39971    1.000
    Si124    Si       0.98901    0.43134    0.48029    1.000
    Si125    Si       0.04009    0.38574    0.38061    1.000
    N126     N        0.02101    0.40382    0.46940    1.000
    N127     N        0.00390    0.40834    0.37821    1.000
    N128     N        0.00512    0.47201    0.47288    1.000
    Si129    Si       0.03913    0.49314    0.40004    1.000
    Si130    Si       0.00945    0.27360    0.53598    1.000
    Si131    Si       0.00296    0.33715    0.58238    1.000
    N132     N        0.99542    0.31264    0.54782    1.000
    N133     N        0.04603    0.34267    0.58671    1.000
    N134     N        0.04340    0.26601    0.56964    1.000
    N135     N        0.04429    0.28013    0.50814    1.000
    Si136    Si       0.00893    0.40480    0.59548    1.000
    Si137    Si       0.00935    0.50521    0.50317    1.000
    N138     N        0.03779    0.29597    0.64553    1.000
    N139     N        0.02845    0.29743    0.71828    1.000
    Si140    Si       0.99709    0.28828    0.63957    1.000
    Si141    Si       0.98845    0.31382    0.71339    1.000
    N142     N        0.03879    0.38931    0.70480    1.000
    Si143    Si       0.00098    0.39512    0.72520    1.000
    N144     N        0.00231    0.47364    0.65959    1.000
    N145     N        0.00608    0.47415    0.72607    1.000
    Si146    Si       0.04210    0.39096    0.66276    1.000
    N147     N        0.00712    0.39649    0.63788    1.000
    Si148    Si       0.02830    0.33816    0.79834    1.000
    N149     N        0.02630    0.29661    0.78968    1.000
    Si150    Si       0.04856    0.28347    0.75403    1.000
    N151     N        0.00850    0.34981    0.87495    1.000
    N152     N        0.04631    0.46648    0.85486    1.000
    N153     N        0.00468    0.41681    0.76386    1.000
    Si154    Si       0.01471    0.45853    0.76648    1.000
    Si155    Si       0.00296    0.45910    0.84264    1.000
    N156     N        0.00428    0.41497    0.83847    1.000
    Si157    Si       0.04097    0.32937    0.95753    1.000
    N158     N        0.02551    0.28923    0.96150    1.000
    N159     N        0.00896    0.36091    0.96625    1.000
    N160     N        0.00688    0.28462    0.88892    1.000
    Si161    Si       0.01200    0.26463    0.92712    1.000
    Si162    Si       0.02161    0.25958    0.99555    1.000
    Si163    Si       0.04590    0.44125    0.96964    1.000
    Si164    Si       0.01407    0.39210    0.87468    1.000
    Si165    Si       0.99872    0.49286    0.97706    1.000
    N166     N        0.01038    0.45894    0.95328    1.000
    N167     N        0.98972    0.40455    0.90982    1.000
    N168     N        0.02059    0.60114    0.08639    1.000
    N169     N        0.02105    0.56091    0.02903    1.000
    Si170    Si       0.03732    0.56686    0.10999    1.000
    Si171    Si       0.99477    0.58063    0.05755    1.000
    N172     N        0.00351    0.67434    0.09203    1.000
    N173     N        0.03053    0.64329    0.03057    1.000
    Si174    Si       0.02959    0.64144    0.07558    1.000
    N175     N        0.03689    0.71733    0.04747    1.000
    Si176    Si       0.99479    0.70369    0.06104    1.000
    N177     N        0.00508    0.54629    0.12847    1.000
    N178     N        0.01669    0.59244    0.17805    1.000
    N179     N        0.03317    0.52474    0.18782    1.000
    Si180    Si       0.99911    0.55063    0.17155    1.000
    Si181    Si       0.00757    0.63252    0.19387    1.000
    N182     N        0.03401    0.63847    0.22968    1.000
    Si183    Si       0.02217    0.73437    0.17609    1.000
    N184     N        0.01435    0.70828    0.20938    1.000
    Si185    Si       0.99294    0.68052    0.13394    1.000
    N186     N        0.02100    0.65655    0.15919    1.000
    N187     N        0.99241    0.71942    0.14952    1.000
    Si188    Si       0.02640    0.68023    0.23795    1.000
    N189     N        0.01960    0.57091    0.26095    1.000
    Si190    Si       0.01875    0.52696    0.26283    1.000
    Si191    Si       0.02281    0.53085    0.33605    1.000
    N192     N        0.99776    0.55423    0.36328    1.000
    N193     N        0.99742    0.62780    0.29562    1.000
    N194     N        0.05195    0.62483    0.34053    1.000
    Si195    Si       0.01251    0.64237    0.33379    1.000
    N196     N        0.03594    0.73105    0.29691    1.000
    N197     N        0.01511    0.68639    0.34144    1.000
    Si198    Si       0.99434    0.72971    0.28200    1.000
    N199     N        0.99468    0.68721    0.26838    1.000
    Si200    Si       0.04638    0.71323    0.33542    1.000
    Si201    Si       0.00638    0.57795    0.46882    1.000
    Si202    Si       0.99967    0.62833    0.40743    1.000
    N203     N        0.03874    0.52742    0.42572    1.000
    N204     N        0.00464    0.58759    0.42603    1.000
    Si205    Si       0.02790    0.56012    0.39951    1.000
    N206     N        0.99007    0.53882    0.48146    1.000
    Si207    Si       0.01148    0.75854    0.38406    1.000
    N208     N        0.03089    0.69455    0.46293    1.000
    N209     N        0.03881    0.64453    0.40251    1.000
    N210     N        0.02739    0.53169    0.58952    1.000
    N211     N        0.01988    0.60261    0.58068    1.000
    Si212    Si       0.03030    0.57011    0.60551    1.000
    N213     N        0.03935    0.63340    0.51765    1.000
    Si214    Si       0.00124    0.69687    0.57250    1.000
    N215     N        0.03320    0.71710    0.54990    1.000
    Si216    Si       0.99510    0.64220    0.51722    1.000
    N217     N        0.01582    0.70360    0.61488    1.000
    N218     N        0.99391    0.65632    0.56042    1.000
    Si219    Si       0.99303    0.58048    0.68356    1.000
    N220     N        0.02320    0.60699    0.69549    1.000
    Si221    Si       0.02503    0.61919    0.73672    1.000
    N222     N        0.01029    0.57557    0.64432    1.000
    Si223    Si       0.02099    0.51452    0.71780    1.000
    N224     N        0.99213    0.54677    0.71092    1.000
    Si225    Si       0.04850    0.60146    0.65814    1.000
    N226     N        0.00405    0.68775    0.68305    1.000
    Si227    Si       0.00992    0.67215    0.64329    1.000
    N228     N        0.03143    0.66462    0.73838    1.000
    Si229    Si       0.02642    0.74470    0.62382    1.000
    Si230    Si       0.04208    0.69120    0.70636    1.000
    N231     N        0.04057    0.75008    0.66427    1.000
    N232     N        0.04480    0.64502    0.64194    1.000
    N233     N        0.03581    0.57400    0.81485    1.000
    Si234    Si       0.99734    0.56332    0.83309    1.000
    N235     N        0.03366    0.52641    0.75862    1.000
    N236     N        0.99457    0.59315    0.75770    1.000
    N237     N        0.99316    0.52019    0.84039    1.000
    Si238    Si       0.04683    0.56433    0.77471    1.000
    N239     N        0.98739    0.59018    0.86593    1.000
    Si240    Si       0.01300    0.68908    0.77227    1.000
    Si241    Si       0.02279    0.73032    0.82619    1.000
    N242     N        0.03379    0.71723    0.86546    1.000
    N243     N        0.99019    0.66412    0.86551    1.000
    N244     N        0.99624    0.65430    0.79381    1.000
    N245     N        0.98645    0.71360    0.81082    1.000
    Si246    Si       0.00880    0.62671    0.87778    1.000
    N247     N        0.02109    0.52321    0.89883    1.000
    N248     N        0.03618    0.52417    0.97020    1.000
    N249     N        0.00877    0.58676    0.96545    1.000
    Si250    Si       0.00478    0.55135    0.98901    1.000
    N251     N        0.01690    0.62863    0.92259    1.000
    Si252    Si       0.04401    0.60185    0.94653    1.000
    Si253    Si       0.03263    0.66694    0.94247    1.000
    N254     N        0.03925    0.69387    0.97839    1.000
    Si255    Si       0.99895    0.70315    0.88409    1.000
    N256     N        0.99546    0.75150    0.97656    1.000
    Si257    Si       0.02500    0.72730    0.95428    1.000
    N258     N        0.00758    0.69814    0.92549    1.000
    Si259    Si       0.02148    0.82347    0.03376    1.000
    N260     N        0.03441    0.82857    0.07571    1.000
    Si261    Si       0.00098    0.83568    0.10198    1.000
    N262     N        0.99657    0.86037    0.03140    1.000
    N263     N        0.99430    0.78866    0.03468    1.000
    N264     N        0.01705    0.76062    0.09724    1.000
    Si265    Si       0.99937    0.89496    0.05828    1.000
    N266     N        0.04054    0.90372    0.06222    1.000
    Si267    Si       0.99886    0.87418    0.18639    1.000
    N268     N        0.01620    0.82549    0.23073    1.000
    N269     N        0.00831    0.77383    0.18916    1.000
    N270     N        0.01745    0.82178    0.14028    1.000
    Si271    Si       0.01456    0.78223    0.23265    1.000
    N272     N        0.04189    0.87304    0.18710    1.000
    Si273    Si       0.04341    0.96159    0.22220    1.000
    Si274    Si       0.03704    0.96165    0.14137    1.000
    N275     N        0.00048    0.95599    0.22012    1.000
    N276     N        0.99662    0.97681    0.15545    1.000
    Si277    Si       0.02817    0.82385    0.34912    1.000
    N278     N        0.00304    0.85895    0.35079    1.000
    N279     N        0.00064    0.79148    0.35827    1.000
    N280     N        0.01001    0.87774    0.28500    1.000
    Si281    Si       0.99018    0.85276    0.25464    1.000
    Si282    Si       0.00142    0.95470    0.31555    1.000
    N283     N        0.04155    0.96503    0.31003    1.000
    Si284    Si       0.00477    0.91733    0.25068    1.000
    N285     N        0.99277    0.92357    0.34665    1.000
    Si286    Si       0.98947    0.88774    0.32314    1.000
    Si287    Si       0.04341    0.85013    0.49413    1.000
    Si288    Si       0.02145    0.78847    0.45615    1.000
    N289     N        0.03571    0.87268    0.41231    1.000
    Si290    Si       0.99575    0.86974    0.39332    1.000
    N291     N        0.02966    0.76200    0.42344    1.000
    N292     N        0.02247    0.75796    0.48880    1.000
    N293     N        0.99109    0.97096    0.40249    1.000
    Si294    Si       0.99944    0.97237    0.44499    1.000
    Si295    Si       0.00002    0.00726    0.37581    1.000
    N296     N        0.04475    0.00464    0.37863    1.000
    N297     N        0.03517    0.99731    0.44747    1.000
    Si298    Si       0.04029    0.90839    0.43956    1.000
    N299     N        0.00584    0.93113    0.45959    1.000
    Si300    Si       0.00137    0.82606    0.55962    1.000
    N301     N        0.00411    0.78462    0.55406    1.000
    N302     N        0.03432    0.84357    0.58607    1.000
    N303     N        0.00500    0.84584    0.52014    1.000
    Si304    Si       0.03928    0.75942    0.55392    1.000
    N305     N        0.99079    0.91456    0.52636    1.000
    N306     N        0.04355    0.99897    0.56744    1.000
    Si307    Si       0.03336    0.88773    0.59672    1.000
    N308     N        0.03677    0.92927    0.58234    1.000
    Si309    Si       0.02288    0.99595    0.52810    1.000
    Si310    Si       0.02389    0.92532    0.49930    1.000
    N311     N        0.04319    0.95899    0.51598    1.000
    Si312    Si       0.99545    0.92873    0.56943    1.000
    Si313    Si       0.02313    0.82378    0.73363    1.000
    N314     N        0.01898    0.79300    0.70467    1.000
    Si315    Si       0.99808    0.76988    0.67375    1.000
    N316     N        0.99148    0.77173    0.63081    1.000
    N317     N        0.98931    0.84859    0.74483    1.000
    N318     N        0.03521    0.89103    0.64025    1.000
    N319     N        0.03396    0.98241    0.69550    1.000
    Si320    Si       0.99374    0.97796    0.68259    1.000
    N321     N        0.01282    0.89980    0.70641    1.000
    Si322    Si       0.03580    0.97770    0.73897    1.000
    Si323    Si       0.99964    0.90015    0.66391    1.000
    Si324    Si       0.00701    0.79844    0.79772    1.000
    N325     N        0.01274    0.77246    0.83258    1.000
    N326     N        0.03913    0.81362    0.77350    1.000
    Si327    Si       0.99974    0.86459    0.78333    1.000
    N328     N        0.03989    0.88018    0.78691    1.000
    N329     N        0.98649    0.83362    0.81212    1.000
    N330     N        0.02045    0.94201    0.82234    1.000
    Si331    Si       0.03665    0.97112    0.84869    1.000
    N332     N        0.00904    0.99977    0.86660    1.000
    N333     N        0.00176    0.00012    0.75452    1.000
    N334     N        0.99767    0.89791    0.86673    1.000
    N335     N        0.04454    0.93853    0.75151    1.000
    N336     N        0.00172    0.79261    0.90297    1.000
    Si337    Si       0.03714    0.86789    0.93321    1.000
    N338     N        0.99644    0.85833    0.91945    1.000
    Si339    Si       0.04374    0.78949    0.91209    1.000
    N340     N        0.04591    0.97463    0.95841    1.000
    Si341    Si       0.00495    0.98787    0.96990    1.000
    Si342    Si       0.03300    0.90921    0.88881    1.000
    N343     N        0.02433    0.91330    0.93409    1.000
    N344     N        0.09195    0.09779    0.08585    1.000
    N345     N        0.09404    0.12384    0.02217    1.000
    Si346    Si       0.04980    0.09913    0.09204    1.000
    Si347    Si       0.05038    0.12550    0.02705    1.000
    N348     N        0.05113    0.19184    0.10093    1.000
    Si349    Si       0.09410    0.24765    0.01943    1.000
    N350     N        0.07017    0.25734    0.09036    1.000
    Si351    Si       0.07253    0.11543    0.24011    1.000
    N352     N        0.06744    0.08527    0.20755    1.000
    N353     N        0.08754    0.04731    0.15209    1.000
    Si354    Si       0.07768    0.08662    0.16380    1.000
    Si355    Si       0.06558    0.04377    0.22459    1.000
    Si356    Si       0.09183    0.01331    0.12926    1.000
    N357     N        0.06665    0.21188    0.22955    1.000
    N358     N        0.06900    0.22678    0.15910    1.000
    Si359    Si       0.07908    0.19259    0.13188    1.000
    Si360    Si       0.10296    0.18952    0.24327    1.000
    N361     N        0.09505    0.15031    0.22638    1.000
    Si362    Si       0.04947    0.20237    0.19125    1.000
    N363     N        0.06087    0.16575    0.16680    1.000
    Si364    Si       0.09842    0.15066    0.18344    1.000
    Si365    Si       0.08132    0.06194    0.29564    1.000
    N366     N        0.06246    0.02579    0.31857    1.000
    N367     N        0.09824    0.09345    0.26801    1.000
    N368     N        0.08213    0.13081    0.36477    1.000
    Si369    Si       0.05145    0.05362    0.35232    1.000
    N370     N        0.05183    0.08784    0.31834    1.000
    Si371    Si       0.07648    0.18888    0.31427    1.000
    N372     N        0.07168    0.19777    0.35789    1.000
    N373     N        0.05787    0.22553    0.29775    1.000
    Si374    Si       0.09212    0.23552    0.36912    1.000
    N375     N        0.10801    0.17999    0.28554    1.000
    N376     N        0.08232    0.06696    0.37978    1.000
    N377     N        0.06731    0.06337    0.46125    1.000
    Si378    Si       0.08083    0.10560    0.40015    1.000
    Si379    Si       0.10832    0.07711    0.46339    1.000
    Si380    Si       0.06650    0.21149    0.49047    1.000
    N381     N        0.05963    0.24652    0.39350    1.000
    N382     N        0.08845    0.22093    0.45457    1.000
    Si383    Si       0.10121    0.16667    0.37194    1.000
    N384     N        0.06689    0.16907    0.49666    1.000
    N385     N        0.08972    0.05574    0.60713    1.000
    N386     N        0.05499    0.06950    0.55719    1.000
    Si387    Si       0.09669    0.07697    0.56832    1.000
    Si388    Si       0.05549    0.03580    0.58586    1.000
    N389     N        0.08938    0.23240    0.52068    1.000
    N390     N        0.09925    0.17310    0.60368    1.000
    Si391    Si       0.05820    0.16996    0.61955    1.000
    N392     N        0.08206    0.03290    0.67582    1.000
    N393     N        0.07207    0.07296    0.73194    1.000
    Si394    Si       0.06464    0.05681    0.64460    1.000
    Si395    Si       0.10291    0.05533    0.70563    1.000
    Si396    Si       0.08139    0.21107    0.67034    1.000
    N397     N        0.09356    0.23574    0.63631    1.000
    Si398    Si       0.07640    0.14751    0.73888    1.000
    N399     N        0.07629    0.19179    0.74256    1.000
    N400     N        0.05646    0.23910    0.69299    1.000
    N401     N        0.05689    0.17783    0.66262    1.000
    N402     N        0.07687    0.12354    0.77610    1.000
    Si403    Si       0.07702    0.08212    0.77429    1.000
    Si404    Si       0.06907    0.04164    0.82234    1.000
    N405     N        0.06617    0.06726    0.85654    1.000
    N406     N        0.10202    0.05331    0.79443    1.000
    Si407    Si       0.10602    0.01716    0.76667    1.000
    Si408    Si       0.09902    0.09866    0.86951    1.000
    N409     N        0.06330    0.00920    0.75534    1.000
    N410     N        0.09218    0.13395    0.84258    1.000
    N411     N        0.10464    0.22829    0.80297    1.000
    Si412    Si       0.06305    0.14215    0.81177    1.000
    Si413    Si       0.07224    0.20949    0.78297    1.000
    N414     N        0.04678    0.18198    0.80509    1.000
    N415     N        0.05146    0.11234    0.89894    1.000
    N416     N        0.09854    0.03326    0.96528    1.000
    Si417    Si       0.05715    0.07055    0.89913    1.000
    N418     N        0.08190    0.10606    0.95781    1.000
    N419     N        0.10467    0.06658    0.90493    1.000
    Si420    Si       0.06613    0.01159    0.94438    1.000
    Si421    Si       0.07905    0.13417    0.92607    1.000
    Si422    Si       0.05656    0.18982    0.97556    1.000
    N423     N        0.06374    0.17174    0.93652    1.000
    N424     N        0.09010    0.21120    0.99387    1.000
    N425     N        0.07839    0.31621    0.04817    1.000
    Si426    Si       0.09988    0.35145    0.06292    1.000
    Si427    Si       0.10177    0.32016    0.00944    1.000
    Si428    Si       0.05184    0.28344    0.06096    1.000
    N429     N        0.05387    0.26177    0.02389    1.000
    N430     N        0.08287    0.38951    0.06523    1.000
    N431     N        0.09190    0.46072    0.08233    1.000
    Si432    Si       0.05730    0.50024    0.00290    1.000
    Si433    Si       0.05037    0.46848    0.09510    1.000
    Si434    Si       0.04908    0.32984    0.16039    1.000
    Si435    Si       0.08955    0.36986    0.20042    1.000
    N436     N        0.07181    0.29705    0.14228    1.000
    N437     N        0.07813    0.36144    0.15878    1.000
    N438     N        0.10459    0.33711    0.22525    1.000
    Si439    Si       0.05523    0.25684    0.13195    1.000
    N440     N        0.09691    0.51029    0.19139    1.000
    N441     N        0.05568    0.38356    0.22073    1.000
    N442     N        0.07486    0.42963    0.18156    1.000
    N443     N        0.05109    0.47627    0.13839    1.000
    Si444    Si       0.04892    0.42599    0.21745    1.000
    Si445    Si       0.07273    0.36414    0.31783    1.000
    N446     N        0.06322    0.34127    0.28179    1.000
    Si447    Si       0.07533    0.26522    0.30371    1.000
    N448     N        0.10025    0.27827    0.27075    1.000
    Si449    Si       0.10027    0.32014    0.26547    1.000
    Si450    Si       0.10027    0.44491    0.32441    1.000
    N451     N        0.07256    0.40917    0.31350    1.000
    Si452    Si       0.08301    0.47783    0.26293    1.000
    N453     N        0.08601    0.48060    0.30448    1.000
    N454     N        0.05549    0.44459    0.25617    1.000
    N455     N        0.10681    0.45805    0.36465    1.000
    Si456    Si       0.07921    0.36888    0.42994    1.000
    N457     N        0.09186    0.32407    0.47332    1.000
    Si458    Si       0.05244    0.30780    0.47708    1.000
    Si459    Si       0.07732    0.25614    0.43132    1.000
    N460     N        0.06190    0.46473    0.42313    1.000
    Si461    Si       0.04780    0.47108    0.46459    1.000
    Si462    Si       0.09184    0.44094    0.40415    1.000
    N463     N        0.08999    0.39542    0.46118    1.000
    N464     N        0.08147    0.39921    0.39300    1.000
    Si465    Si       0.05926    0.40433    0.49094    1.000
    N466     N        0.05451    0.50706    0.49021    1.000
    N467     N        0.06725    0.44737    0.49512    1.000
    Si468    Si       0.07148    0.37560    0.56824    1.000
    Si469    Si       0.07534    0.27103    0.54009    1.000
    N470     N        0.09760    0.30399    0.61212    1.000
    N471     N        0.07442    0.37429    0.52423    1.000
    N472     N        0.10147    0.30900    0.54321    1.000
    Si473    Si       0.10213    0.34185    0.51291    1.000
    Si474    Si       0.08067    0.48421    0.51911    1.000
    N475     N        0.05004    0.40986    0.58858    1.000
    N476     N        0.05902    0.48030    0.55391    1.000
    Si477    Si       0.06277    0.50504    0.58792    1.000
    Si478    Si       0.07428    0.43387    0.61408    1.000
    N479     N        0.10119    0.35102    0.72241    1.000
    Si480    Si       0.06246    0.32759    0.62372    1.000
    Si481    Si       0.05381    0.28297    0.68589    1.000
    N482     N        0.09138    0.30113    0.67757    1.000
    N483     N        0.07099    0.35995    0.65005    1.000
    Si484    Si       0.06876    0.37837    0.73498    1.000
    N485     N        0.06420    0.48043    0.62130    1.000
    N486     N        0.05475    0.50556    0.68964    1.000
    N487     N        0.05833    0.43149    0.65538    1.000
    N488     N        0.10371    0.50288    0.73824    1.000
    Si489    Si       0.04522    0.47332    0.66015    1.000
    Si490    Si       0.08434    0.36812    0.80382    1.000
    N491     N        0.09136    0.28788    0.75538    1.000
    N492     N        0.05571    0.34125    0.83142    1.000
    N493     N        0.05410    0.36172    0.77320    1.000
    N494     N        0.06943    0.29141    0.87108    1.000
    N495     N        0.08324    0.40935    0.81453    1.000
    Si496    Si       0.08882    0.43595    0.78047    1.000
    Si497    Si       0.07135    0.42835    0.85203    1.000
    N498     N        0.05622    0.46571    0.77624    1.000
    N499     N        0.09818    0.40858    0.74794    1.000
    N500     N        0.06146    0.33918    0.91778    1.000
    N501     N        0.08018    0.33532    0.97688    1.000
    Si502    Si       0.10347    0.33816    0.93601    1.000
    Si503    Si       0.05101    0.33185    0.87405    1.000
    N504     N        0.05840    0.39504    0.87732    1.000
    N505     N        0.07675    0.49830    0.91301    1.000
    N506     N        0.10137    0.43837    0.88390    1.000
    Si507    Si       0.08857    0.40442    0.90765    1.000
    N508     N        0.06856    0.41917    0.94206    1.000
    N509     N        0.07681    0.46931    0.98386    1.000
    N510     N        0.07990    0.59893    0.01816    1.000
    N511     N        0.06906    0.55640    0.07989    1.000
    Si512    Si       0.06339    0.56357    0.03804    1.000
    N513     N        0.08442    0.52843    0.02327    1.000
    Si514    Si       0.09918    0.55580    0.11148    1.000
    Si515    Si       0.06813    0.64024    0.00917    1.000
    N516     N        0.08254    0.72390    0.10209    1.000
    N517     N        0.06790    0.65283    0.09378    1.000
    N518     N        0.08985    0.67794    0.01912    1.000
    Si519    Si       0.09612    0.68323    0.10131    1.000
    Si520    Si       0.06084    0.70865    0.01267    1.000
    Si521    Si       0.05186    0.74184    0.08027    1.000
    Si522    Si       0.10823    0.75562    0.11841    1.000
    N523     N        0.10758    0.51264    0.12044    1.000
    N524     N        0.06928    0.55676    0.14208    1.000
    Si525    Si       0.05864    0.58257    0.17669    1.000
    N526     N        0.07988    0.61917    0.16308    1.000
    N527     N        0.07484    0.57541    0.21651    1.000
    Si528    Si       0.06726    0.53166    0.21368    1.000
    Si529    Si       0.05003    0.59992    0.24597    1.000
    Si530    Si       0.07527    0.51204    0.15263    1.000
    Si531    Si       0.09935    0.71264    0.16962    1.000
    Si532    Si       0.06077    0.64994    0.13941    1.000
    N533     N        0.06586    0.73965    0.17500    1.000
    Si534    Si       0.10363    0.67344    0.23818    1.000
    N535     N        0.09566    0.67763    0.14415    1.000
    N536     N        0.07740    0.60858    0.27867    1.000
    Si537    Si       0.07255    0.59308    0.31852    1.000
    N538     N        0.05740    0.55188    0.32064    1.000
    Si539    Si       0.07910    0.51271    0.33227    1.000
    N540     N        0.05782    0.51186    0.25035    1.000
    N541     N        0.11107    0.59257    0.33860    1.000
    Si542    Si       0.06836    0.73386    0.26579    1.000
    N543     N        0.08848    0.69682    0.33808    1.000
    N544     N        0.06664    0.69476    0.24503    1.000
    N545     N        0.04498    0.74421    0.36270    1.000
    Si546    Si       0.10546    0.56242    0.36990    1.000
    Si547    Si       0.06725    0.62190    0.37980    1.000
    N548     N        0.06644    0.57712    0.38540    1.000
    Si549    Si       0.06445    0.53886    0.46285    1.000
    Si550    Si       0.06447    0.61702    0.48826    1.000
    N551     N        0.10653    0.54167    0.45668    1.000
    N552     N        0.04965    0.57863    0.47526    1.000
    N553     N        0.10588    0.64060    0.38884    1.000
    N554     N        0.07529    0.64264    0.45534    1.000
    Si555    Si       0.05363    0.67099    0.43166    1.000
    N556     N        0.07740    0.69921    0.40784    1.000
    Si557    Si       0.10423    0.68484    0.37745    1.000
    N558     N        0.08105    0.73739    0.46249    1.000
    Si559    Si       0.06668    0.73904    0.42172    1.000
    Si560    Si       0.04949    0.72392    0.49034    1.000
    N561     N        0.09750    0.52712    0.58517    1.000
    N562     N        0.08962    0.59469    0.56132    1.000
    Si563    Si       0.10015    0.56972    0.59628    1.000
    Si564    Si       0.05361    0.62089    0.55716    1.000
    N565     N        0.06970    0.65823    0.57207    1.000
    N566     N        0.07935    0.69846    0.51041    1.000
    Si567    Si       0.07181    0.69684    0.55289    1.000
    N568     N        0.07760    0.76881    0.53545    1.000
    N569     N        0.06779    0.58118    0.62441    1.000
    Si570    Si       0.09224    0.59438    0.71768    1.000
    N571     N        0.08904    0.61315    0.67516    1.000
    Si572    Si       0.09478    0.51863    0.69726    1.000
    N573     N        0.06136    0.59674    0.74947    1.000
    Si574    Si       0.08404    0.65307    0.65713    1.000
    N575     N        0.08040    0.68317    0.68616    1.000
    N576     N        0.05204    0.73030    0.72528    1.000
    Si577    Si       0.06519    0.58222    0.84599    1.000
    N578     N        0.08537    0.54222    0.78870    1.000
    N579     N        0.07755    0.54368    0.86426    1.000
    N580     N        0.04946    0.61980    0.86645    1.000
    N581     N        0.10473    0.59362    0.83107    1.000
    Si582    Si       0.07146    0.50558    0.76913    1.000
    N583     N        0.04651    0.71236    0.79231    1.000
    Si584    Si       0.07607    0.72269    0.76199    1.000
    N585     N        0.10018    0.62240    0.91340    1.000
    N586     N        0.07020    0.56969    0.93300    1.000
    Si587    Si       0.05147    0.52957    0.93083    1.000
    Si588    Si       0.05286    0.50700    0.87229    1.000
    N589     N        0.07154    0.67969    0.91485    1.000
    Si590    Si       0.09061    0.75697    0.95624    1.000
    N591     N        0.06337    0.63560    0.96405    1.000
    N592     N        0.07285    0.74574    0.99411    1.000
    Si593    Si       0.09738    0.65450    0.94456    1.000
    N594     N        0.09874    0.73168    0.87174    1.000
    N595     N        0.05409    0.75063    0.92814    1.000
    Si596    Si       0.06507    0.71985    0.89786    1.000
    Si597    Si       0.07902    0.64713    0.88528    1.000
    N598     N        0.07110    0.77497    0.06123    1.000
    Si599    Si       0.08037    0.77853    0.01985    1.000
    Si600    Si       0.07221    0.81041    0.08551    1.000
    N601     N        0.05597    0.81386    0.00866    1.000
    N602     N        0.10878    0.83185    0.07794    1.000
    Si603    Si       0.07453    0.91998    0.08690    1.000
    N604     N        0.08429    0.95866    0.06818    1.000
    Si605    Si       0.08041    0.00323    0.06210    1.000
    Si606    Si       0.10291    0.95542    0.02828    1.000
    N607     N        0.08448    0.93005    0.99751    1.000
    N608     N        0.08267    0.79207    0.12422    1.000
    Si609    Si       0.05235    0.84245    0.21419    1.000
    N610     N        0.05541    0.76672    0.23863    1.000
    Si611    Si       0.06023    0.82225    0.14881    1.000
    N612     N        0.08195    0.86041    0.13474    1.000
    Si613    Si       0.07975    0.77112    0.20250    1.000
    N614     N        0.07511    0.81330    0.19007    1.000
    N615     N        0.05261    0.92314    0.12493    1.000
    N616     N        0.05002    0.99639    0.11922    1.000
    N617     N        0.05605    0.95540    0.18141    1.000
    Si618    Si       0.09894    0.95422    0.17634    1.000
    Si619    Si       0.06795    0.89526    0.15919    1.000
    N620     N        0.10685    0.91035    0.17418    1.000
    Si621    Si       0.09571    0.82009    0.31230    1.000
    N622     N        0.05385    0.83154    0.31491    1.000
    Si623    Si       0.05333    0.86840    0.29053    1.000
    N624     N        0.07324    0.85730    0.25233    1.000
    N625     N        0.09644    0.78217    0.33148    1.000
    Si626    Si       0.07322    0.77711    0.36619    1.000
    Si627    Si       0.06787    0.94019    0.28655    1.000
    N628     N        0.07398    0.90225    0.30605    1.000
    Si629    Si       0.06138    0.98877    0.34281    1.000
    N630     N        0.06100    0.98756    0.25063    1.000
    N631     N        0.10166    0.97816    0.35344    1.000
    N632     N        0.04608    0.92639    0.25050    1.000
    N633     N        0.09697    0.76234    0.40150    1.000
    N634     N        0.05578    0.81396    0.38019    1.000
    Si635    Si       0.06178    0.83831    0.41545    1.000
    N636     N        0.04804    0.82445    0.45750    1.000
    Si637    Si       0.05941    0.98402    0.41306    1.000
    Si638    Si       0.09399    0.90170    0.48253    1.000
    N639     N        0.05479    0.94061    0.41443    1.000
    N640     N        0.04888    0.89399    0.48115    1.000
    N641     N        0.09986    0.99663    0.42261    1.000
    N642     N        0.07373    0.83904    0.52409    1.000
    Si643    Si       0.07472    0.84140    0.56654    1.000
    Si644    Si       0.09593    0.77502    0.59926    1.000
    N645     N        0.05496    0.76091    0.59583    1.000
    N646     N        0.10517    0.81849    0.58750    1.000
    N647     N        0.08544    0.88364    0.57710    1.000
    Si648    Si       0.08629    0.95904    0.52796    1.000
    N649     N        0.09640    0.96115    0.56999    1.000
    Si650    Si       0.05924    0.96476    0.59210    1.000
    N651     N        0.10042    0.91860    0.52079    1.000
    Si652    Si       0.05508    0.76726    0.70137    1.000
    N653     N        0.05728    0.85394    0.72622    1.000
    N654     N        0.08820    0.85150    0.65724    1.000
    N655     N        0.08759    0.79653    0.70644    1.000
    Si656    Si       0.08753    0.83886    0.69957    1.000
    Si657    Si       0.07657    0.89289    0.65473    1.000
    Si658    Si       0.05368    0.90111    0.72501    1.000
    N659     N        0.10099    0.92186    0.63280    1.000
    N660     N        0.08213    0.91512    0.69429    1.000
    N661     N        0.06462    0.98217    0.63096    1.000
    Si662    Si       0.07107    0.99024    0.67301    1.000
    Si663    Si       0.07176    0.85743    0.76890    1.000
    Si664    Si       0.10744    0.77382    0.86960    1.000
    N665     N        0.09273    0.89514    0.75330    1.000
    N666     N        0.08590    0.94018    0.80619    1.000
    N667     N        0.06287    0.99822    0.82559    1.000
    Si668    Si       0.10273    0.97792    0.82671    1.000
    Si669    Si       0.04664    0.92361    0.79373    1.000
    Si670    Si       0.08536    0.84205    0.88473    1.000
    Si671    Si       0.07437    0.83248    0.97433    1.000
    N672     N        0.07486    0.80052    0.88248    1.000
    N673     N        0.05730    0.87281    0.89429    1.000
    N674     N        0.06784    0.87986    0.96416    1.000
    N675     N        0.04922    0.82263    0.93980    1.000
    N676     N        0.08623    0.99858    0.90714    1.000
    Si677    Si       0.06175    0.93115    0.96010    1.000
    N678     N        0.05335    0.94514    0.87778    1.000
    Si679    Si       0.10369    0.89227    0.98853    1.000
    Si680    Si       0.09092    0.95670    0.89659    1.000
    N681     N        0.09899    0.93751    0.93539    1.000
    N682     N        0.14584    0.08873    0.05588    1.000
    Si683    Si       0.11676    0.12170    0.05791    1.000
    Si684    Si       0.12402    0.06858    0.08752    1.000
    N685     N        0.10454    0.02844    0.08917    1.000
    Si686    Si       0.14663    0.20085    0.04640    1.000
    N687     N        0.14124    0.15723    0.05830    1.000
    N688     N        0.12093    0.23448    0.05159    1.000
    N689     N        0.15626    0.20644    0.00431    1.000
    N690     N        0.11618    0.20230    0.11204    1.000
    Si691    Si       0.11208    0.23970    0.09354    1.000
    N692     N        0.15175    0.07443    0.12052    1.000
    Si693    Si       0.14950    0.03197    0.23080    1.000
    Si694    Si       0.14954    0.10965    0.14449    1.000
    N695     N        0.16095    0.03475    0.18789    1.000
    N696     N        0.10917    0.11609    0.16092    1.000
    N697     N        0.10607    0.03007    0.23499    1.000
    N698     N        0.12696    0.18110    0.17394    1.000
    N699     N        0.16219    0.14884    0.12148    1.000
    N700     N        0.13348    0.21674    0.23023    1.000
    Si701    Si       0.14800    0.18716    0.13655    1.000
    Si702    Si       0.16083    0.20565    0.19351    1.000
    N703     N        0.12364    0.05529    0.30990    1.000
    Si704    Si       0.13885    0.08334    0.28167    1.000
    Si705    Si       0.15337    0.03725    0.33363    1.000
    N706     N        0.15251    0.12041    0.29663    1.000
    N707     N        0.13515    0.17339    0.34491    1.000
    Si708    Si       0.14300    0.16041    0.30310    1.000
    Si709    Si       0.15969    0.20129    0.36726    1.000
    N710     N        0.10637    0.25202    0.33182    1.000
    N711     N        0.16021    0.25245    0.28542    1.000
    Si712    Si       0.13394    0.25593    0.25067    1.000
    N713     N        0.15721    0.09509    0.37524    1.000
    N714     N        0.14154    0.03170    0.37711    1.000
    N715     N        0.13059    0.04138    0.47474    1.000
    Si716    Si       0.12330    0.06867    0.38903    1.000
    N717     N        0.11659    0.09308    0.42434    1.000
    N718     N        0.11523    0.11520    0.48147    1.000
    Si719    Si       0.13253    0.13337    0.44198    1.000
    N720     N        0.12602    0.22200    0.38998    1.000
    N721     N        0.13412    0.17528    0.47198    1.000
    Si722    Si       0.14556    0.25407    0.41043    1.000
    N723     N        0.16060    0.22388    0.44079    1.000
    Si724    Si       0.12463    0.19850    0.43582    1.000
    N725     N        0.11223    0.16116    0.41386    1.000
    Si726    Si       0.12986    0.02233    0.51660    1.000
    N727     N        0.12641    0.05223    0.54666    1.000
    N728     N        0.12002    0.11147    0.56109    1.000
    Si729    Si       0.15599    0.08657    0.55068    1.000
    N730     N        0.12086    0.17504    0.53840    1.000
    Si731    Si       0.12839    0.21856    0.53590    1.000
    Si732    Si       0.12417    0.15167    0.57452    1.000
    Si733    Si       0.11933    0.21088    0.60965    1.000
    N734     N        0.12979    0.23391    0.57566    1.000
    Si735    Si       0.10895    0.15383    0.50159    1.000
    N736     N        0.16437    0.15301    0.58970    1.000
    N737     N        0.12239    0.02573    0.72801    1.000
    N738     N        0.13650    0.08080    0.69777    1.000
    Si739    Si       0.14425    0.12397    0.69326    1.000
    N740     N        0.15837    0.02408    0.66353    1.000
    N741     N        0.14114    0.12657    0.65009    1.000
    N742     N        0.11368    0.14449    0.71800    1.000
    N743     N        0.13605    0.23304    0.74460    1.000
    N744     N        0.12050    0.20253    0.68787    1.000
    N745     N        0.15839    0.20389    0.63255    1.000
    Si746    Si       0.12422    0.18821    0.72753    1.000
    Si747    Si       0.15344    0.22552    0.66984    1.000
    N748     N        0.16361    0.17807    0.74572    1.000
    N749     N        0.13707    0.08674    0.84962    1.000
    Si750    Si       0.13556    0.05089    0.82585    1.000
    N751     N        0.11564    0.02103    0.85070    1.000
    Si752    Si       0.13226    0.22347    0.83582    1.000
    Si753    Si       0.12291    0.15490    0.86439    1.000
    N754     N        0.11923    0.19668    0.86979    1.000
    N755     N        0.16455    0.14688    0.84903    1.000
    N756     N        0.13591    0.25956    0.86060    1.000
    Si757    Si       0.11440    0.12082    0.98391    1.000
    Si758    Si       0.11632    0.02650    0.89259    1.000
    N759     N        0.14240    0.09299    0.96445    1.000
    N760     N        0.15385    0.01336    0.90847    1.000
    Si761    Si       0.12597    0.01457    0.99075    1.000
    N762     N        0.11518    0.13171    0.90164    1.000
    Si763    Si       0.10727    0.07189    0.94682    1.000
    Si764    Si       0.12786    0.19840    0.97219    1.000
    Si765    Si       0.14349    0.21322    0.90368    1.000
    N766     N        0.12832    0.15589    0.96464    1.000
    Si767    Si       0.15143    0.13451    0.93014    1.000
    N768     N        0.12736    0.23130    0.94215    1.000
    N769     N        0.16122    0.17519    0.91424    1.000
    N770     N        0.12541    0.35288    0.02746    1.000
    N771     N        0.11510    0.34168    0.10346    1.000
    N772     N        0.13262    0.27068    0.12058    1.000
    Si773    Si       0.14421    0.39326    0.02812    1.000
    N774     N        0.14601    0.41398    0.06699    1.000
    Si775    Si       0.12465    0.48561    0.09387    1.000
    N776     N        0.15778    0.46479    0.11228    1.000
    N777     N        0.14143    0.50451    0.05850    1.000
    N778     N        0.12814    0.42178    1.00000    1.000
    Si779    Si       0.10650    0.41875    0.08702    1.000
    N780     N        0.14019    0.49451    0.99324    1.000
    Si781    Si       0.11089    0.30737    0.13054    1.000
    N782     N        0.13149    0.32726    0.16206    1.000
    Si783    Si       0.13766    0.32166    0.20292    1.000
    N784     N        0.14836    0.28145    0.21688    1.000
    Si785    Si       0.12254    0.36633    0.13997    1.000
    N786     N        0.12769    0.38999    0.19141    1.000
    N787     N        0.11295    0.40923    0.12851    1.000
    Si788    Si       0.12815    0.48847    0.20943    1.000
    Si789    Si       0.11566    0.42597    0.16820    1.000
    N790     N        0.14148    0.45998    0.17751    1.000
    N791     N        0.12052    0.46650    0.24477    1.000
    N792     N        0.14011    0.33260    0.28057    1.000
    Si793    Si       0.14257    0.33614    0.32547    1.000
    N794     N        0.15256    0.30161    0.34544    1.000
    Si795    Si       0.14715    0.26403    0.32482    1.000
    N796     N        0.10910    0.35709    0.34143    1.000
    N797     N        0.14012    0.43373    0.31043    1.000
    Si798    Si       0.14862    0.43953    0.26526    1.000
    Si799    Si       0.13719    0.49153    0.36837    1.000
    N800     N        0.11343    0.27850    0.42490    1.000
    Si801    Si       0.12313    0.31717    0.44232    1.000
    Si802    Si       0.11592    0.37508    0.37891    1.000
    N803     N        0.16389    0.31950    0.45561    1.000
    N804     N        0.11069    0.34662    0.41068    1.000
    Si805    Si       0.12740    0.41262    0.46013    1.000
    N806     N        0.12558    0.44454    0.42928    1.000
    N807     N        0.15839    0.38857    0.44182    1.000
    N808     N        0.15190    0.39801    0.37453    1.000
    Si809    Si       0.15753    0.47319    0.43424    1.000
    Si810    Si       0.12145    0.31830    0.58027    1.000
    N811     N        0.11353    0.36181    0.57798    1.000
    N812     N        0.14012    0.36105    0.50171    1.000
    N813     N        0.16537    0.32000    0.59054    1.000
    Si814    Si       0.15481    0.47014    0.50902    1.000
    Si815    Si       0.14016    0.39405    0.59123    1.000
    N816     N        0.12084    0.49176    0.52916    1.000
    N817     N        0.11642    0.42414    0.61448    1.000
    N818     N        0.14278    0.43001    0.49521    1.000
    Si819    Si       0.16103    0.39760    0.51732    1.000
    N820     N        0.14928    0.30422    0.72900    1.000
    N821     N        0.14628    0.33098    0.66126    1.000
    N822     N        0.14537    0.26667    0.66159    1.000
    Si823    Si       0.15769    0.29857    0.68833    1.000
    Si824    Si       0.10666    0.27734    0.64602    1.000
    Si825    Si       0.10737    0.34719    0.67737    1.000
    Si826    Si       0.13865    0.41240    0.64884    1.000
    N827     N        0.12453    0.49331    0.67727    1.000
    Si828    Si       0.12834    0.38713    0.72451    1.000
    Si829    Si       0.15990    0.47150    0.68990    1.000
    N830     N        0.12428    0.38980    0.68103    1.000
    N831     N        0.15394    0.45362    0.72804    1.000
    N832     N        0.14609    0.28563    0.79112    1.000
    Si833    Si       0.14402    0.32467    0.81518    1.000
    N834     N        0.11814    0.34612    0.78844    1.000
    N835     N        0.12727    0.32513    0.85790    1.000
    Si836    Si       0.11556    0.32257    0.75233    1.000
    Si837    Si       0.11696    0.25830    0.77329    1.000
    Si838    Si       0.15869    0.44240    0.81241    1.000
    N839     N        0.12369    0.45662    0.79080    1.000
    Si840    Si       0.13677    0.48069    0.75476    1.000
    N841     N        0.15408    0.40966    0.83751    1.000
    Si842    Si       0.13257    0.27220    0.95630    1.000
    N843     N        0.11508    0.29813    0.92530    1.000
    N844     N        0.11822    0.37633    0.92003    1.000
    N845     N        0.15561    0.34174    0.95551    1.000
    Si846    Si       0.16093    0.37564    0.93156    1.000
    Si847    Si       0.11202    0.29149    0.88164    1.000
    N848     N        0.11636    0.28086    0.99544    1.000
    N849     N        0.13443    0.45740    0.94053    1.000
    Si850    Si       0.11139    0.47345    0.90832    1.000
    N851     N        0.13915    0.49987    0.88769    1.000
    Si852    Si       0.11831    0.45778    0.98102    1.000
    N853     N        0.13854    0.56546    0.03661    1.000
    Si854    Si       0.12266    0.59530    0.00901    1.000
    N855     N        0.13604    0.57891    0.10831    1.000
    Si856    Si       0.12661    0.52339    0.02439    1.000
    Si857    Si       0.16259    0.57047    0.07318    1.000
    N858     N        0.14105    0.63284    0.02104    1.000
    N859     N        0.13370    0.68185    0.07752    1.000
    Si860    Si       0.13022    0.67335    0.03450    1.000
    N861     N        0.15727    0.70576    0.01606    1.000
    Si862    Si       0.15325    0.74869    0.01543    1.000
    N863     N        0.14151    0.57051    0.18258    1.000
    Si864    Si       0.15256    0.59129    0.14613    1.000
    Si865    Si       0.11666    0.58983    0.21287    1.000
    N866     N        0.11044    0.63290    0.22220    1.000
    N867     N        0.14902    0.63244    0.16101    1.000
    N868     N        0.16447    0.51113    0.21814    1.000
    N869     N        0.12705    0.74102    0.15439    1.000
    N870     N        0.11883    0.68942    0.20034    1.000
    Si871    Si       0.16219    0.69902    0.20779    1.000
    Si872    Si       0.11061    0.64838    0.17722    1.000
    N873     N        0.16831    0.74002    0.21346    1.000
    Si874    Si       0.15175    0.60784    0.33917    1.000
    Si875    Si       0.11799    0.62265    0.26906    1.000
    N876     N        0.15493    0.62103    0.29687    1.000
    Si877    Si       0.15688    0.53349    0.32673    1.000
    N878     N        0.11745    0.52672    0.34761    1.000
    N879     N        0.16325    0.53528    0.28531    1.000
    N880     N        0.14184    0.58667    0.24807    1.000
    Si881    Si       0.11579    0.70318    0.30431    1.000
    N882     N        0.15754    0.69762    0.31518    1.000
    N883     N        0.11971    0.66829    0.27790    1.000
    Si884    Si       0.16672    0.66401    0.28775    1.000
    N885     N        0.11109    0.73812    0.27490    1.000
    Si886    Si       0.14116    0.54395    0.43253    1.000
    Si887    Si       0.13889    0.61734    0.40614    1.000
    N888     N        0.13158    0.57497    0.40170    1.000
    N889     N        0.15199    0.62413    0.44801    1.000
    N890     N        0.14804    0.50667    0.40887    1.000
    Si891    Si       0.15614    0.70340    0.42516    1.000
    Si892    Si       0.11182    0.71459    0.48281    1.000
    Si893    Si       0.11661    0.64309    0.46612    1.000
    N894     N        0.14477    0.69649    0.38451    1.000
    N895     N        0.13377    0.68400    0.46076    1.000
    N896     N        0.15852    0.74664    0.42979    1.000
    N897     N        0.14276    0.56018    0.54846    1.000
    Si898    Si       0.13018    0.60195    0.53759    1.000
    Si899    Si       0.13649    0.51967    0.56339    1.000
    N900     N        0.13366    0.57163    0.62199    1.000
    N901     N        0.16862    0.51129    0.59549    1.000
    N902     N        0.10788    0.61637    0.50052    1.000
    N903     N        0.13681    0.64119    0.56198    1.000
    Si904    Si       0.14261    0.72686    0.59146    1.000
    N905     N        0.13913    0.74211    0.50155    1.000
    Si906    Si       0.11074    0.66281    0.58876    1.000
    N907     N        0.10845    0.70482    0.57557    1.000
    N908     N        0.15806    0.61026    0.67124    1.000
    N909     N        0.12297    0.61998    0.73081    1.000
    Si910    Si       0.12184    0.58653    0.66306    1.000
    N911     N        0.10736    0.55955    0.69587    1.000
    Si912    Si       0.11332    0.70059    0.70828    1.000
    N913     N        0.12263    0.74179    0.69998    1.000
    Si914    Si       0.15321    0.63823    0.70471    1.000
    N915     N        0.14924    0.68059    0.69547    1.000
    N916     N        0.15113    0.72731    0.63605    1.000
    N917     N        0.11781    0.66113    0.63093    1.000
    Si918    Si       0.15062    0.68358    0.65051    1.000
    N919     N        0.13818    0.53456    0.83259    1.000
    Si920    Si       0.12064    0.56275    0.80522    1.000
    Si921    Si       0.14903    0.62081    0.76603    1.000
    N922     N        0.15212    0.58108    0.78354    1.000
    Si923    Si       0.12794    0.63047    0.83367    1.000
    Si924    Si       0.13962    0.68822    0.78201    1.000
    N925     N        0.13406    0.71579    0.81728    1.000
    N926     N        0.13810    0.64780    0.79560    1.000
    Si927    Si       0.12558    0.70032    0.85805    1.000
    N928     N        0.10697    0.69422    0.75218    1.000
    Si929    Si       0.13203    0.75646    0.80148    1.000
    N930     N        0.10828    0.66148    0.85713    1.000
    Si931    Si       0.12149    0.53472    0.87139    1.000
    N932     N        0.13676    0.56890    0.89632    1.000
    N933     N        0.13192    0.58255    0.96646    1.000
    Si934    Si       0.11034    0.58310    0.92949    1.000
    N935     N        0.15751    0.70225    0.88614    1.000
    Si936    Si       0.14974    0.70408    0.92984    1.000
    N937     N        0.13789    0.66501    0.94891    1.000
    N938     N        0.11857    0.72752    0.94542    1.000
    N939     N        0.12457    0.78011    0.02541    1.000
    N940     N        0.13815    0.77227    0.09042    1.000
    Si941    Si       0.13716    0.80495    0.05955    1.000
    Si942    Si       0.11831    0.86170    0.10812    1.000
    N943     N        0.16122    0.85674    0.11993    1.000
    N944     N        0.10119    0.99972    0.02369    1.000
    N945     N        0.13887    0.93479    0.03526    1.000
    Si946    Si       0.14917    0.91625    0.07427    1.000
    N947     N        0.11258    0.90001    0.08974    1.000
    N948     N        0.14669    0.80562    0.16225    1.000
    N949     N        0.12976    0.85625    0.21174    1.000
    N950     N        0.12168    0.78023    0.21507    1.000
    Si951    Si       0.11992    0.81823    0.19282    1.000
    Si952    Si       0.15429    0.76557    0.17903    1.000
    N953     N        0.11401    0.95749    0.21770    1.000
    Si954    Si       0.15494    0.00050    0.16260    1.000
    Si955    Si       0.15651    0.95640    0.22101    1.000
    N956     N        0.11591    0.98622    0.15404    1.000
    Si957    Si       0.14133    0.89440    0.19562    1.000
    N958     N        0.12088    0.81419    0.27721    1.000
    Si959    Si       0.13266    0.77523    0.25918    1.000
    Si960    Si       0.11649    0.85257    0.25473    1.000
    N961     N        0.11463    0.85226    0.33462    1.000
    N962     N        0.13511    0.88480    0.27720    1.000
    Si963    Si       0.11642    0.89199    0.31526    1.000
    N964     N        0.13947    0.92321    0.33315    1.000
    Si965    Si       0.12967    0.96379    0.32217    1.000
    N966     N        0.15927    0.99747    0.31728    1.000
    N967     N        0.10559    0.96356    0.28770    1.000
    Si968    Si       0.16385    0.92113    0.37005    1.000
    Si969    Si       0.10571    0.98644    0.24997    1.000
    N970     N        0.15734    0.99239    0.24671    1.000
    Si971    Si       0.12985    0.84642    0.37672    1.000
    N972     N        0.13020    0.80228    0.45272    1.000
    Si973    Si       0.13249    0.78046    0.41486    1.000
    N974     N        0.14992    0.80782    0.38461    1.000
    Si975    Si       0.13475    0.84460    0.44644    1.000
    Si976    Si       0.15446    0.78009    0.48192    1.000
    N977     N        0.11646    0.86559    0.47826    1.000
    N978     N        0.15940    0.87774    0.38148    1.000
    N979     N        0.10592    0.84680    0.41415    1.000
    Si980    Si       0.12587    0.99168    0.38865    1.000
    N981     N        0.11036    0.92875    0.45243    1.000
    Si982    Si       0.14819    0.94308    0.43646    1.000
    N983     N        0.14838    0.95507    0.39342    1.000
    N984     N        0.15503    0.98083    0.46066    1.000
    Si985    Si       0.11499    0.99928    0.46299    1.000
    N986     N        0.13810    0.80127    0.51984    1.000
    N987     N        0.13824    0.85975    0.54237    1.000
    Si988    Si       0.14290    0.81149    0.56274    1.000
    N989     N        0.13416    0.76622    0.57456    1.000
    Si990    Si       0.11517    0.83793    0.51155    1.000
    Si991    Si       0.11961    0.76350    0.53341    1.000
    Si992    Si       0.12297    0.94443    0.59904    1.000
    N993     N        0.14744    0.91857    0.57669    1.000
    Si994    Si       0.11785    0.89587    0.55359    1.000
    N995     N        0.10257    0.99086    0.50451    1.000
    Si996    Si       0.15820    0.86503    0.68000    1.000
    N997     N        0.12612    0.85753    0.71076    1.000
    N998     N        0.15147    0.84902    0.64037    1.000
    N999     N        0.15174    0.79910    0.73578    1.000
    Si1000   Si       0.11749    0.77500    0.73002    1.000
    Si1001   Si       0.11366    0.82875    0.63034    1.000
    N1002    N        0.11084    0.78497    0.63858    1.000
    Si1003   Si       0.13681    0.75898    0.66361    1.000
    Si1004   Si       0.14057    0.83886    0.74726    1.000
    N1005    N        0.14815    0.90817    0.68351    1.000
    N1006    N        0.10984    0.97426    0.68482    1.000
    N1007    N        0.13903    0.93423    0.74376    1.000
    N1008    N        0.14992    0.96284    0.63075    1.000
    Si1009   Si       0.12664    0.94087    0.66214    1.000
    Si1010   Si       0.11870    0.90512    0.71869    1.000
    Si1011   Si       0.13882    0.00363    0.69631    1.000
    Si1012   Si       0.12277    0.82598    0.81727    1.000
    N1013    N        0.11902    0.78635    0.83083    1.000
    N1014    N        0.10894    0.83506    0.77804    1.000
    Si1015   Si       0.14823    0.85416    0.87038    1.000
    N1016    N        0.10287    0.75766    0.76776    1.000
    N1017    N        0.10819    0.85197    0.84780    1.000
    Si1018   Si       0.14842    0.92856    0.84600    1.000
    N1019    N        0.12853    0.98853    0.79250    1.000
    N1020    N        0.14728    0.90964    0.80750    1.000
    Si1021   Si       0.11637    0.92317    0.78013    1.000
    N1022    N        0.11866    0.95461    0.86130    1.000
    Si1023   Si       0.13907    0.81271    0.99518    1.000
    N1024    N        0.16351    0.82778    0.95852    1.000
    Si1025   Si       0.13049    0.81333    0.93040    1.000
    N1026    N        0.13888    0.78126    0.90018    1.000
    N1027    N        0.12343    0.84870    0.90705    1.000
    N1028    N        0.11045    0.84796    0.99649    1.000
    N1029    N        0.10494    0.79786    0.95999    1.000
    Si1030   Si       0.13762    0.94174    0.95357    1.000
    N1031    N        0.14678    0.97749    0.97905    1.000
    N1032    N        0.14666    0.90411    0.97603    1.000
    N1033    N        0.19892    0.05489    0.07553    1.000
    Si1034   Si       0.18994    0.09346    0.05325    1.000
    N1035    N        0.19639    0.10346    0.01106    1.000
    Si1036   Si       0.21674    0.01756    0.06503    1.000
    N1037    N        0.20872    0.12697    0.07404    1.000
    Si1038   Si       0.18649    0.04768    0.11569    1.000
    N1039    N        0.16278    0.03751    0.99880    1.000
    Si1040   Si       0.20678    0.23644    0.06801    1.000
    N1041    N        0.18287    0.20025    0.07211    1.000
    N1042    N        0.21205    0.24351    0.02537    1.000
    Si1043   Si       0.17809    0.15737    0.08213    1.000
    N1044    N        0.21721    0.17240    0.00978    1.000
    N1045    N        0.17596    0.10256    0.17857    1.000
    N1046    N        0.21305    0.06186    0.14634    1.000
    Si1047   Si       0.19166    0.06254    0.18493    1.000
    N1048    N        0.20797    0.12523    0.24136    1.000
    Si1049   Si       0.20312    0.13079    0.19660    1.000
    N1050    N        0.19617    0.22927    0.21443    1.000
    Si1051   Si       0.22120    0.19642    0.21253    1.000
    N1052    N        0.17067    0.22290    0.15218    1.000
    N1053    N        0.18988    0.17264    0.19375    1.000
    N1054    N        0.19255    0.05571    0.33186    1.000
    Si1055   Si       0.20990    0.08181    0.25101    1.000
    N1056    N        0.16766    0.06453    0.25350    1.000
    N1057    N        0.21681    0.11094    0.37126    1.000
    Si1058   Si       0.19580    0.07253    0.36939    1.000
    N1059    N        0.17493    0.23600    0.34367    1.000
    Si1060   Si       0.21088    0.15497    0.27238    1.000
    N1061    N        0.17984    0.18169    0.29064    1.000
    Si1062   Si       0.18921    0.22174    0.30242    1.000
    Si1063   Si       0.21830    0.24260    0.35436    1.000
    N1064    N        0.21265    0.02534    0.47458    1.000
    N1065    N        0.21219    0.05096    0.40430    1.000
    Si1066   Si       0.18166    0.13100    0.38819    1.000
    N1067    N        0.17478    0.13234    0.43138    1.000
    Si1068   Si       0.20892    0.14478    0.45536    1.000
    N1069    N        0.20097    0.16904    0.48895    1.000
    N1070    N        0.18972    0.17272    0.37937    1.000
    Si1071   Si       0.17919    0.20829    0.47962    1.000
    N1072    N        0.21528    0.23032    0.46932    1.000
    Si1073   Si       0.20699    0.24935    0.43051    1.000
    N1074    N        0.18898    0.08290    0.52187    1.000
    Si1075   Si       0.19918    0.05847    0.61323    1.000
    N1076    N        0.18789    0.01765    0.59939    1.000
    N1077    N        0.17803    0.08793    0.58891    1.000
    Si1078   Si       0.21538    0.04773    0.51399    1.000
    Si1079   Si       0.17309    0.11871    0.62145    1.000
    Si1080   Si       0.22284    0.10907    0.51554    1.000
    Si1081   Si       0.20108    0.24451    0.53444    1.000
    Si1082   Si       0.18861    0.18073    0.61448    1.000
    N1083    N        0.16565    0.22746    0.51652    1.000
    N1084    N        0.19176    0.08056    0.64897    1.000
    N1085    N        0.19970    0.05361    0.71482    1.000
    Si1086   Si       0.21991    0.12605    0.67332    1.000
    Si1087   Si       0.17220    0.06015    0.68194    1.000
    N1088    N        0.18685    0.13185    0.70367    1.000
    Si1089   Si       0.20602    0.01481    0.74011    1.000
    Si1090   Si       0.22190    0.07822    0.74292    1.000
    N1091    N        0.20489    0.14674    0.63811    1.000
    Si1092   Si       0.21849    0.25240    0.68407    1.000
    Si1093   Si       0.17714    0.22020    0.73903    1.000
    Si1094   Si       0.19597    0.14901    0.74326    1.000
    N1095    N        0.18717    0.22370    0.69527    1.000
    N1096    N        0.20458    0.09235    0.82952    1.000
    Si1097   Si       0.21144    0.05257    0.81287    1.000
    N1098    N        0.17337    0.03057    0.81792    1.000
    N1099    N        0.21063    0.11456    0.76419    1.000
    Si1100   Si       0.17321    0.10505    0.86085    1.000
    N1101    N        0.22203    0.04564    0.77281    1.000
    N1102    N        0.17601    0.21278    0.82941    1.000
    Si1103   Si       0.19649    0.17750    0.84783    1.000
    Si1104   Si       0.20476    0.23784    0.80799    1.000
    N1105    N        0.19517    0.24865    0.76674    1.000
    N1106    N        0.22499    0.16240    0.81570    1.000
    Si1107   Si       0.17759    0.07384    0.98386    1.000
    N1108    N        0.17851    0.10682    0.90251    1.000
    N1109    N        0.20948    0.06868    0.95494    1.000
    Si1110   Si       0.21287    0.10291    0.92740    1.000
    N1111    N        0.20199    0.13975    0.95068    1.000
    Si1112   Si       0.21835    0.13547    0.99113    1.000
    N1113    N        0.21993    0.17390    0.88717    1.000
    N1114    N        0.18250    0.23409    0.89902    1.000
    Si1115   Si       0.20294    0.17979    0.92640    1.000
    Si1116   Si       0.20187    0.24962    0.93458    1.000
    N1117    N        0.20774    0.21298    0.95552    1.000
    Si1118   Si       0.20055    0.21026    0.99848    1.000
    Si1119   Si       0.20795    0.30536    0.08831    1.000
    N1120    N        0.18649    0.34235    0.07439    1.000
    Si1121   Si       0.20333    0.35001    0.03503    1.000
    N1122    N        0.20112    0.31460    0.01053    1.000
    Si1123   Si       0.19706    0.36490    0.11135    1.000
    N1124    N        0.19279    0.26685    0.09656    1.000
    N1125    N        0.18640    0.38605    0.01977    1.000
    N1126    N        0.20653    0.40567    0.09957    1.000
    N1127    N        0.20003    0.46731    0.06280    1.000
    Si1128   Si       0.17895    0.43782    0.08610    1.000
    N1129    N        0.20157    0.45173    0.00158    1.000
    Si1130   Si       0.18480    0.50720    0.05659    1.000
    Si1131   Si       0.17239    0.26236    0.13553    1.000
    Si1132   Si       0.21437    0.33669    0.22034    1.000
    Si1133   Si       0.19165    0.27216    0.20501    1.000
    N1134    N        0.19721    0.28600    0.16302    1.000
    N1135    N        0.17346    0.34430    0.21053    1.000
    N1136    N        0.21869    0.29474    0.22959    1.000
    N1137    N        0.16913    0.37194    0.14339    1.000
    Si1138   Si       0.17057    0.38041    0.18567    1.000
    Si1139   Si       0.20891    0.40179    0.24225    1.000
    Si1140   Si       0.17306    0.47578    0.15107    1.000
    N1141    N        0.20434    0.40431    0.19997    1.000
    N1142    N        0.21554    0.46158    0.15086    1.000
    N1143    N        0.17604    0.36435    0.31843    1.000
    N1144    N        0.21270    0.35963    0.25683    1.000
    Si1145   Si       0.17298    0.36090    0.27453    1.000
    Si1146   Si       0.18741    0.30188    0.37221    1.000
    N1147    N        0.17983    0.46961    0.27401    1.000
    N1148    N        0.20039    0.42698    0.33405    1.000
    Si1149   Si       0.19268    0.46629    0.31499    1.000
    N1150    N        0.16692    0.40227    0.25720    1.000
    N1151    N        0.17144    0.49396    0.34136    1.000
    Si1152   Si       0.16382    0.40347    0.33345    1.000
    Si1153   Si       0.17437    0.35924    0.47203    1.000
    N1154    N        0.19862    0.33691    0.39380    1.000
    N1155    N        0.21772    0.35435    0.44843    1.000
    N1156    N        0.18155    0.27695    0.40914    1.000
    Si1157   Si       0.19935    0.31522    0.43087    1.000
    Si1158   Si       0.17621    0.40801    0.40865    1.000
    N1159    N        0.17266    0.48807    0.47216    1.000
    N1160    N        0.21827    0.40073    0.39400    1.000
    N1161    N        0.18850    0.45078    0.41621    1.000
    Si1162   Si       0.19975    0.30376    0.56380    1.000
    N1163    N        0.20291    0.28894    0.52089    1.000
    N1164    N        0.20403    0.25975    0.57640    1.000
    N1165    N        0.19871    0.38402    0.50037    1.000
    N1166    N        0.18616    0.46191    0.53719    1.000
    Si1167   Si       0.20139    0.42767    0.55916    1.000
    N1168    N        0.20339    0.44382    0.60036    1.000
    Si1169   Si       0.20427    0.48768    0.59924    1.000
    N1170    N        0.16692    0.40056    0.55824    1.000
    Si1171   Si       0.21667    0.49254    0.53115    1.000
    N1172    N        0.20059    0.29083    0.69486    1.000
    N1173    N        0.21454    0.33653    0.64036    1.000
    Si1174   Si       0.17305    0.34097    0.62791    1.000
    Si1175   Si       0.22547    0.32511    0.68215    1.000
    N1176    N        0.22111    0.35822    0.70845    1.000
    N1177    N        0.21857    0.43185    0.71861    1.000
    N1178    N        0.16678    0.38616    0.62651    1.000
    N1179    N        0.19421    0.49780    0.70064    1.000
    N1180    N        0.16880    0.43931    0.66194    1.000
    N1181    N        0.22257    0.49520    0.63893    1.000
    Si1182   Si       0.19706    0.41892    0.63629    1.000
    N1183    N        0.16857    0.38452    0.74292    1.000
    N1184    N        0.20229    0.31950    0.77116    1.000
    N1185    N        0.18401    0.33763    0.83157    1.000
    N1186    N        0.20198    0.27450    0.83004    1.000
    Si1187   Si       0.21542    0.31312    0.81485    1.000
    Si1188   Si       0.17664    0.28782    0.75803    1.000
    Si1189   Si       0.20430    0.35791    0.75130    1.000
    Si1190   Si       0.17881    0.26548    0.86669    1.000
    N1191    N        0.19036    0.42877    0.78687    1.000
    N1192    N        0.17598    0.47700    0.83143    1.000
    N1193    N        0.16569    0.50812    0.76927    1.000
    Si1194   Si       0.18434    0.42557    0.74349    1.000
    Si1195   Si       0.16757    0.33608    0.87105    1.000
    N1196    N        0.17915    0.37237    0.89204    1.000
    N1197    N        0.17627    0.27840    0.95535    1.000
    N1198    N        0.18503    0.30280    0.89039    1.000
    Si1199   Si       0.18896    0.31687    0.96897    1.000
    N1200    N        0.22116    0.33389    0.94595    1.000
    Si1201   Si       0.18559    0.40586    0.86689    1.000
    Si1202   Si       0.18344    0.48890    0.98753    1.000
    N1203    N        0.18167    0.40875    0.95012    1.000
    Si1204   Si       0.20263    0.41222    0.98653    1.000
    Si1205   Si       0.17616    0.44934    0.93283    1.000
    N1206    N        0.19660    0.48508    0.94685    1.000
    Si1207   Si       0.17767    0.48347    0.87432    1.000
    N1208    N        0.18710    0.44343    0.89157    1.000
    N1209    N        0.18864    0.60417    0.06291    1.000
    N1210    N        0.19107    0.53866    0.08455    1.000
    Si1211   Si       0.18343    0.62253    0.02295    1.000
    N1212    N        0.19630    0.51855    0.01677    1.000
    N1213    N        0.19025    0.58687    0.00048    1.000
    Si1214   Si       0.21303    0.63262    0.08321    1.000
    Si1215   Si       0.17652    0.68562    0.08347    1.000
    N1216    N        0.19050    0.65488    0.11268    1.000
    N1217    N        0.19797    0.66502    0.05235    1.000
    N1218    N        0.18991    0.72339    0.10195    1.000
    Si1219   Si       0.19826    0.68956    0.01503    1.000
    N1220    N        0.18736    0.75773    0.04290    1.000
    Si1221   Si       0.20584    0.54263    0.12533    1.000
    N1222    N        0.19646    0.58274    0.13992    1.000
    Si1223   Si       0.17530    0.54325    0.19079    1.000
    N1224    N        0.21225    0.56791    0.20258    1.000
    N1225    N        0.17924    0.52107    0.15194    1.000
    Si1226   Si       0.20337    0.72226    0.14495    1.000
    Si1227   Si       0.18568    0.65345    0.15484    1.000
    N1228    N        0.18305    0.69234    0.17178    1.000
    N1229    N        0.22483    0.63795    0.16844    1.000
    Si1230   Si       0.20009    0.75606    0.23695    1.000
    N1231    N        0.17820    0.67662    0.24411    1.000
    N1232    N        0.21226    0.59023    0.27061    1.000
    N1233    N        0.17652    0.57216    0.33160    1.000
    Si1234   Si       0.21877    0.57126    0.34369    1.000
    Si1235   Si       0.16914    0.57947    0.28115    1.000
    Si1236   Si       0.18405    0.50714    0.25578    1.000
    N1237    N        0.22299    0.52378    0.25776    1.000
    N1238    N        0.18144    0.74816    0.35451    1.000
    N1239    N        0.21314    0.66519    0.29681    1.000
    N1240    N        0.21167    0.68284    0.36624    1.000
    Si1241   Si       0.17430    0.70563    0.35491    1.000
    Si1242   Si       0.21998    0.68233    0.25312    1.000
    N1243    N        0.22785    0.72350    0.24836    1.000
    Si1244   Si       0.20899    0.63971    0.37384    1.000
    N1245    N        0.16979    0.62365    0.37468    1.000
    Si1246   Si       0.17923    0.59771    0.47080    1.000
    N1247    N        0.17363    0.55692    0.45813    1.000
    Si1248   Si       0.19695    0.52283    0.47275    1.000
    N1249    N        0.21151    0.62744    0.47233    1.000
    N1250    N        0.22119    0.55108    0.38129    1.000
    Si1251   Si       0.20012    0.75485    0.43667    1.000
    N1252    N        0.19173    0.68024    0.43328    1.000
    Si1253   Si       0.17869    0.65899    0.46871    1.000
    Si1254   Si       0.18851    0.56879    0.53595    1.000
    N1255    N        0.19836    0.52934    0.51696    1.000
    N1256    N        0.19498    0.57323    0.57880    1.000
    Si1257   Si       0.17148    0.55478    0.60886    1.000
    N1258    N        0.17100    0.60042    0.51355    1.000
    Si1259   Si       0.21491    0.63391    0.51671    1.000
    N1260    N        0.20994    0.64498    0.56349    1.000
    Si1261   Si       0.20810    0.73154    0.56829    1.000
    N1262    N        0.18234    0.66473    0.51234    1.000
    Si1263   Si       0.17196    0.66446    0.55463    1.000
    N1264    N        0.17287    0.70667    0.56886    1.000
    N1265    N        0.20259    0.75635    0.60275    1.000
    N1266    N        0.19149    0.55526    0.64943    1.000
    Si1267   Si       0.19794    0.59721    0.65826    1.000
    Si1268   Si       0.21151    0.52307    0.66984    1.000
    Si1269   Si       0.19773    0.51917    0.74053    1.000
    N1270    N        0.22088    0.61047    0.62411    1.000
    N1271    N        0.18116    0.63301    0.73899    1.000
    N1272    N        0.22286    0.60852    0.69184    1.000
    Si1273   Si       0.22130    0.63670    0.72436    1.000
    N1274    N        0.19737    0.74352    0.72314    1.000
    N1275    N        0.21561    0.67548    0.70685    1.000
    Si1276   Si       0.18481    0.70046    0.72119    1.000
    Si1277   Si       0.19074    0.74566    0.64017    1.000
    N1278    N        0.19000    0.67136    0.64170    1.000
    Si1279   Si       0.22452    0.68282    0.66571    1.000
    N1280    N        0.22249    0.72681    0.66297    1.000
    Si1281   Si       0.19554    0.57413    0.78718    1.000
    N1282    N        0.20426    0.54361    0.81592    1.000
    N1283    N        0.21050    0.61374    0.80168    1.000
    Si1284   Si       0.17185    0.51456    0.81053    1.000
    Si1285   Si       0.21849    0.54403    0.85615    1.000
    N1286    N        0.20785    0.56067    0.74733    1.000
    N1287    N        0.16534    0.62196    0.85474    1.000
    Si1288   Si       0.19977    0.63967    0.83582    1.000
    N1289    N        0.19798    0.68324    0.83029    1.000
    N1290    N        0.17630    0.69660    0.76278    1.000
    Si1291   Si       0.21147    0.69797    0.79078    1.000
    N1292    N        0.19033    0.75233    0.85585    1.000
    Si1293   Si       0.19438    0.70911    0.86472    1.000
    Si1294   Si       0.17573    0.58460    0.95906    1.000
    N1295    N        0.20726    0.57850    0.87980    1.000
    N1296    N        0.20080    0.55009    0.95192    1.000
    N1297    N        0.17836    0.61539    0.93067    1.000
    Si1298   Si       0.21760    0.51848    0.92541    1.000
    Si1299   Si       0.17005    0.59766    0.88980    1.000
    Si1300   Si       0.21406    0.55229    0.99397    1.000
    N1301    N        0.20859    0.51215    0.88307    1.000
    N1302    N        0.19810    0.65160    0.99102    1.000
    Si1303   Si       0.17979    0.65324    0.95304    1.000
    N1304    N        0.19100    0.69663    0.94388    1.000
    Si1305   Si       0.21976    0.72446    0.92906    1.000
    N1306    N        0.19859    0.79995    0.09602    1.000
    Si1307   Si       0.19397    0.85627    0.03354    1.000
    Si1308   Si       0.17989    0.76141    0.08448    1.000
    N1309    N        0.16357    0.82611    0.03293    1.000
    N1310    N        0.17864    0.89229    0.05343    1.000
    N1311    N        0.19988    0.97816    0.07244    1.000
    Si1312   Si       0.19088    0.96632    0.11341    1.000
    N1313    N        0.20484    0.94068    0.00843    1.000
    N1314    N        0.17447    0.92781    0.10728    1.000
    Si1315   Si       0.16943    0.91381    0.01341    1.000
    Si1316   Si       0.22383    0.96168    0.04061    1.000
    N1317    N        0.21256    0.82710    0.15623    1.000
    Si1318   Si       0.17670    0.81693    0.13191    1.000
    N1319    N        0.22543    0.78346    0.21402    1.000
    Si1320   Si       0.22664    0.78774    0.17122    1.000
    N1321    N        0.19232    0.76251    0.15628    1.000
    Si1322   Si       0.20602    0.90453    0.20215    1.000
    N1323    N        0.17629    0.96660    0.18300    1.000
    Si1324   Si       0.18761    0.89175    0.12866    1.000
    N1325    N        0.16829    0.91507    0.22777    1.000
    N1326    N        0.17646    0.89335    0.17076    1.000
    Si1327   Si       0.21888    0.97138    0.17708    1.000
    N1328    N        0.17703    0.00592    0.12646    1.000
    N1329    N        0.20805    0.80588    0.33583    1.000
    Si1330   Si       0.19473    0.80177    0.29540    1.000
    N1331    N        0.17614    0.77571    0.26732    1.000
    Si1332   Si       0.18650    0.78765    0.36917    1.000
    N1333    N        0.22761    0.82150    0.27271    1.000
    N1334    N        0.19924    0.88907    0.30228    1.000
    N1335    N        0.18628    0.94650    0.28757    1.000
    N1336    N        0.20492    0.92945    0.36047    1.000
    Si1337   Si       0.18229    0.98884    0.28303    1.000
    Si1338   Si       0.21226    0.92941    0.31796    1.000
    Si1339   Si       0.17125    0.90692    0.27206    1.000
    N1340    N        0.22014    0.00859    0.27625    1.000
    Si1341   Si       0.21707    0.85282    0.47003    1.000
    N1342    N        0.21035    0.78381    0.40391    1.000
    N1343    N        0.19572    0.77772    0.47316    1.000
    N1344    N        0.17837    0.85049    0.44946    1.000
    Si1345   Si       0.18512    0.87803    0.41539    1.000
    Si1346   Si       0.19000    0.98903    0.48597    1.000
    N1347    N        0.21155    0.95101    0.48856    1.000
    Si1348   Si       0.21815    0.92620    0.45303    1.000
    N1349    N        0.17860    0.91447    0.43873    1.000
    N1350    N        0.20570    0.83467    0.50955    1.000
    N1351    N        0.18297    0.82535    0.57373    1.000
    Si1352   Si       0.21183    0.79395    0.57932    1.000
    Si1353   Si       0.18259    0.85723    0.54058    1.000
    Si1354   Si       0.18584    0.84682    0.61341    1.000
    N1355    N        0.20889    0.76828    0.54272    1.000
    Si1356   Si       0.21732    0.79154    0.50694    1.000
    N1357    N        0.20427    0.88479    0.60009    1.000
    Si1358   Si       0.18997    0.91799    0.57401    1.000
    N1359    N        0.20740    0.95744    0.56912    1.000
    N1360    N        0.19734    0.89868    0.53408    1.000
    Si1361   Si       0.19387    0.99895    0.55898    1.000
    N1362    N        0.16932    0.00180    0.52373    1.000
    Si1363   Si       0.20906    0.84822    0.73520    1.000
    Si1364   Si       0.20776    0.80763    0.67069    1.000
    N1365    N        0.17667    0.77902    0.66553    1.000
    N1366    N        0.19078    0.84295    0.69548    1.000
    N1367    N        0.21815    0.82591    0.63343    1.000
    N1368    N        0.20564    0.93405    0.71479    1.000
    Si1369   Si       0.17746    0.99665    0.63478    1.000
    Si1370   Si       0.17730    0.95467    0.74332    1.000
    Si1371   Si       0.21131    0.97335    0.69469    1.000
    N1372    N        0.21491    0.97832    0.65235    1.000
    N1373    N        0.17503    0.98831    0.71483    1.000
    Si1374   Si       0.20422    0.76670    0.81627    1.000
    N1375    N        0.17600    0.86211    0.75910    1.000
    Si1376   Si       0.17400    0.87602    0.79969    1.000
    N1377    N        0.17100    0.76608    0.78818    1.000
    N1378    N        0.21598    0.87457    0.81495    1.000
    Si1379   Si       0.20867    0.83657    0.84297    1.000
    N1380    N        0.21914    0.81040    0.75374    1.000
    Si1381   Si       0.18618    0.77857    0.74836    1.000
    N1382    N        0.16451    0.84080    0.82301    1.000
    N1383    N        0.18031    0.96102    0.83842    1.000
    N1384    N        0.19452    0.98262    0.77274    1.000
    Si1385   Si       0.21712    0.95759    0.86044    1.000
    Si1386   Si       0.16970    0.98952    0.80631    1.000
    N1387    N        0.16224    0.89730    0.87220    1.000
    Si1388   Si       0.17123    0.86906    0.96192    1.000
    N1389    N        0.18288    0.82306    0.87919    1.000
    Si1390   Si       0.19772    0.79267    0.95932    1.000
    Si1391   Si       0.18074    0.77948    0.88760    1.000
    Si1392   Si       0.21070    0.84408    0.90608    1.000
    N1393    N        0.19931    0.76409    0.92463    1.000
    N1394    N        0.19304    0.87825    0.92565    1.000
    N1395    N        0.16939    0.77075    0.98384    1.000
    N1396    N        0.19881    0.87871    0.99642    1.000
    Si1397   Si       0.18621    0.98767    0.91803    1.000
    Si1398   Si       0.18629    0.91346    0.90390    1.000
    N1399    N        0.20606    0.00122    0.95392    1.000
    N1400    N        0.21724    0.99075    0.88732    1.000
    Si1401   Si       0.18802    0.99549    0.99276    1.000
    N1402    N        0.17054    0.94667    0.92619    1.000
    N1403    N        0.25908    0.09517    0.10747    1.000
    Si1404   Si       0.25506    0.03186    0.01475    1.000
    N1405    N        0.25604    0.07058    0.03718    1.000
    N1406    N        0.25821    0.02191    0.08160    1.000
    Si1407   Si       0.27049    0.06337    0.08166    1.000
    Si1408   Si       0.27645    0.10564    0.02216    1.000
    Si1409   Si       0.25043    0.13286    0.08448    1.000
    N1410    N        0.28106    0.13279    0.05423    1.000
    N1411    N        0.24693    0.22850    0.08463    1.000
    N1412    N        0.25806    0.16393    0.11376    1.000
    Si1413   Si       0.27671    0.19934    0.09577    1.000
    Si1414   Si       0.25524    0.04061    0.19836    1.000
    Si1415   Si       0.24706    0.09064    0.14968    1.000
    N1416    N        0.23826    0.12835    0.17187    1.000
    N1417    N        0.27767    0.06610    0.17057    1.000
    N1418    N        0.22486    0.06558    0.21428    1.000
    Si1419   Si       0.26429    0.16135    0.15570    1.000
    N1420    N        0.27341    0.25715    0.20168    1.000
    N1421    N        0.25646    0.19481    0.18619    1.000
    Si1422   Si       0.26250    0.10754    0.29201    1.000
    N1423    N        0.23703    0.07324    0.28256    1.000
    N1424    N        0.24134    0.01335    0.34004    1.000
    Si1425   Si       0.22576    0.03814    0.30835    1.000
    N1426    N        0.27968    0.10363    0.33414    1.000
    Si1427   Si       0.24736    0.13169    0.34479    1.000
    N1428    N        0.23374    0.13712    0.30403    1.000
    Si1429   Si       0.27777    0.17218    0.26090    1.000
    Si1430   Si       0.27265    0.22964    0.30306    1.000
    N1431    N        0.23061    0.22588    0.31592    1.000
    N1432    N        0.23639    0.18403    0.24936    1.000
    N1433    N        0.26258    0.16325    0.36944    1.000
    N1434    N        0.27246    0.25893    0.27308    1.000
    Si1435   Si       0.26771    0.01838    0.37262    1.000
    Si1436   Si       0.23513    0.03363    0.43570    1.000
    Si1437   Si       0.27008    0.09032    0.47611    1.000
    N1438    N        0.26770    0.05960    0.44680    1.000
    N1439    N        0.23001    0.11164    0.47392    1.000
    Si1440   Si       0.23117    0.18449    0.39361    1.000
    N1441    N        0.28170    0.24254    0.44318    1.000
    N1442    N        0.22559    0.22726    0.39444    1.000
    Si1443   Si       0.25880    0.23286    0.48024    1.000
    Si1444   Si       0.27702    0.16382    0.45202    1.000
    N1445    N        0.23855    0.16806    0.43311    1.000
    N1446    N        0.27320    0.19053    0.48898    1.000
    Si1447   Si       0.25715    0.03087    0.57820    1.000
    N1448    N        0.24264    0.05867    0.60585    1.000
    N1449    N        0.25318    0.07537    0.51708    1.000
    N1450    N        0.22835    0.02305    0.54753    1.000
    N1451    N        0.25598    0.13172    0.60308    1.000
    N1452    N        0.24282    0.14078    0.53522    1.000
    Si1453   Si       0.23685    0.17740    0.51213    1.000
    Si1454   Si       0.23404    0.24267    0.60594    1.000
    Si1455   Si       0.27312    0.14546    0.56704    1.000
    N1456    N        0.27522    0.25177    0.58979    1.000
    N1457    N        0.23247    0.21675    0.52979    1.000
    N1458    N        0.22828    0.19839    0.61000    1.000
    Si1459   Si       0.26284    0.09203    0.62433    1.000
    N1460    N        0.26462    0.08257    0.73657    1.000
    N1461    N        0.25271    0.09598    0.66647    1.000
    Si1462   Si       0.28275    0.08960    0.69687    1.000
    N1463    N        0.24862    0.16184    0.68145    1.000
    Si1464   Si       0.24830    0.16370    0.63287    1.000
    Si1465   Si       0.25017    0.19334    0.71213    1.000
    N1466    N        0.25152    0.23523    0.70433    1.000
    N1467    N        0.22881    0.17962    0.74869    1.000
    N1468    N        0.27072    0.11411    0.80388    1.000
    N1469    N        0.24181    0.03500    0.83761    1.000
    Si1470   Si       0.28522    0.04726    0.83796    1.000
    Si1471   Si       0.22629    0.12013    0.80531    1.000
    N1472    N        0.24735    0.22326    0.80717    1.000
    Si1473   Si       0.25157    0.18394    0.78627    1.000
    N1474    N        0.25121    0.11306    0.90901    1.000
    N1475    N        0.25131    0.04480    0.90640    1.000
    Si1476   Si       0.25150    0.01327    0.87494    1.000
    N1477    N        0.26681    0.02656    0.97308    1.000
    Si1478   Si       0.27924    0.07926    0.90546    1.000
    Si1479   Si       0.23371    0.03405    0.94486    1.000
    N1480    N        0.26029    0.12128    0.98383    1.000
    Si1481   Si       0.25795    0.15459    0.88892    1.000
    N1482    N        0.26836    0.16924    0.92943    1.000
    N1483    N        0.24507    0.35715    0.04393    1.000
    N1484    N        0.24137    0.29336    0.06435    1.000
    Si1485   Si       0.26264    0.34561    0.08386    1.000
    Si1486   Si       0.26396    0.26790    0.09046    1.000
    Si1487   Si       0.22746    0.28605    0.02329    1.000
    N1488    N        0.22960    0.33632    0.11659    1.000
    N1489    N        0.27412    0.38682    0.09199    1.000
    Si1490   Si       0.26632    0.38771    0.01991    1.000
    Si1491   Si       0.24798    0.41585    0.10908    1.000
    N1492    N        0.26314    0.48718    0.03295    1.000
    N1493    N        0.25813    0.45825    0.09848    1.000
    N1494    N        0.25557    0.42454    0.03925    1.000
    Si1495   Si       0.23064    0.45815    0.03294    1.000
    Si1496   Si       0.28581    0.47418    0.06781    1.000
    N1497    N        0.26000    0.27940    0.13311    1.000
    Si1498   Si       0.26876    0.37013    0.17608    1.000
    Si1499   Si       0.25899    0.27946    0.23677    1.000
    N1500    N        0.23815    0.34022    0.18298    1.000
    Si1501   Si       0.23488    0.31073    0.15308    1.000
    N1502    N        0.28042    0.31751    0.24855    1.000
    Si1503   Si       0.23072    0.43223    0.17798    1.000
    N1504    N        0.26185    0.45060    0.20142    1.000
    Si1505   Si       0.27765    0.42282    0.23138    1.000
    N1506    N        0.25419    0.40550    0.15112    1.000
    Si1507   Si       0.25030    0.48469    0.13280    1.000
    Si1508   Si       0.25995    0.30393    0.35886    1.000
    N1509    N        0.27968    0.31413    0.32184    1.000
    N1510    N        0.22137    0.28609    0.35176    1.000
    N1511    N        0.26365    0.38787    0.32902    1.000
    Si1512   Si       0.27579    0.41038    0.29416    1.000
    N1513    N        0.23494    0.48236    0.31277    1.000
    N1514    N        0.24500    0.41742    0.26103    1.000
    Si1515   Si       0.26674    0.47229    0.33917    1.000
    Si1516   Si       0.23443    0.41058    0.35324    1.000
    N1517    N        0.25086    0.44884    0.36943    1.000
    N1518    N        0.26191    0.33787    0.38529    1.000
    Si1519   Si       0.23948    0.37526    0.48180    1.000
    Si1520   Si       0.23154    0.36299    0.40732    1.000
    Si1521   Si       0.27207    0.28220    0.42662    1.000
    N1522    N        0.23199    0.28893    0.44252    1.000
    Si1523   Si       0.23312    0.29885    0.48802    1.000
    N1524    N        0.27122    0.38335    0.42625    1.000
    N1525    N        0.27962    0.27410    0.38444    1.000
    Si1526   Si       0.25636    0.48755    0.46316    1.000
    Si1527   Si       0.22963    0.44503    0.40573    1.000
    N1528    N        0.26791    0.40829    0.48628    1.000
    N1529    N        0.25917    0.45371    0.43720    1.000
    Si1530   Si       0.28222    0.41944    0.44516    1.000
    Si1531   Si       0.24523    0.34028    0.60958    1.000
    Si1532   Si       0.26588    0.33776    0.53994    1.000
    N1533    N        0.23408    0.32860    0.56846    1.000
    N1534    N        0.25096    0.33723    0.50077    1.000
    N1535    N        0.26469    0.38086    0.60239    1.000
    N1536    N        0.26589    0.27153    0.49872    1.000
    N1537    N        0.27905    0.31506    0.62381    1.000
    Si1538   Si       0.26690    0.43881    0.51576    1.000
    N1539    N        0.24477    0.42013    0.54958    1.000
    N1540    N        0.24339    0.47488    0.50255    1.000
    N1541    N        0.23311    0.50088    0.57077    1.000
    Si1542   Si       0.27986    0.40022    0.56744    1.000
    Si1543   Si       0.27247    0.28375    0.65342    1.000
    N1544    N        0.26340    0.30599    0.68839    1.000
    N1545    N        0.23555    0.26115    0.64635    1.000
    N1546    N        0.23200    0.40583    0.65871    1.000
    Si1547   Si       0.23144    0.47284    0.71106    1.000
    N1548    N        0.26788    0.47932    0.68749    1.000
    Si1549   Si       0.26703    0.40505    0.63827    1.000
    Si1550   Si       0.26423    0.48147    0.64139    1.000
    N1551    N        0.27953    0.39493    0.72299    1.000
    Si1552   Si       0.23909    0.39841    0.70313    1.000
    N1553    N        0.25862    0.30768    0.81679    1.000
    Si1554   Si       0.27494    0.36825    0.75877    1.000
    Si1555   Si       0.27814    0.31747    0.85539    1.000
    N1556    N        0.23518    0.37645    0.77612    1.000
    Si1557   Si       0.25330    0.37362    0.87111    1.000
    N1558    N        0.25719    0.44618    0.80765    1.000
    Si1559   Si       0.26027    0.47794    0.77834    1.000
    Si1560   Si       0.22760    0.41053    0.80555    1.000
    N1561    N        0.23153    0.49026    0.74956    1.000
    N1562    N        0.22567    0.40095    0.84893    1.000
    N1563    N        0.28443    0.51193    0.79565    1.000
    N1564    N        0.23948    0.27037    0.92755    1.000
    N1565    N        0.24483    0.33125    0.87907    1.000
    Si1566   Si       0.25142    0.36652    0.94927    1.000
    Si1567   Si       0.27030    0.26219    0.95721    1.000
    Si1568   Si       0.22427    0.30966    0.90935    1.000
    N1569    N        0.25977    0.28728    0.99422    1.000
    N1570    N        0.25899    0.38832    0.91169    1.000
    N1571    N        0.24175    0.39142    0.98462    1.000
    N1572    N        0.27475    0.46012    0.92090    1.000
    N1573    N        0.25377    0.61858    0.08868    1.000
    N1574    N        0.23181    0.71705    0.01360    1.000
    N1575    N        0.24608    0.52792    0.13298    1.000
    Si1576   Si       0.27580    0.61941    0.12753    1.000
    N1577    N        0.26755    0.58761    0.15814    1.000
    Si1578   Si       0.22608    0.59374    0.16970    1.000
    Si1579   Si       0.27963    0.54583    0.15699    1.000
    N1580    N        0.28333    0.52396    0.19685    1.000
    Si1581   Si       0.23010    0.56279    0.24196    1.000
    Si1582   Si       0.28336    0.66273    0.23759    1.000
    N1583    N        0.24327    0.71068    0.15029    1.000
    N1584    N        0.28212    0.67885    0.19711    1.000
    Si1585   Si       0.27743    0.73625    0.13638    1.000
    Si1586   Si       0.25251    0.67193    0.16620    1.000
    N1587    N        0.24805    0.54800    0.32071    1.000
    N1588    N        0.27342    0.62117    0.29352    1.000
    Si1589   Si       0.25061    0.51715    0.29002    1.000
    Si1590   Si       0.27619    0.62128    0.33601    1.000
    N1591    N        0.23154    0.61219    0.34339    1.000
    Si1592   Si       0.23296    0.62703    0.28203    1.000
    Si1593   Si       0.28264    0.54716    0.35382    1.000
    N1594    N        0.27237    0.56804    0.24668    1.000
    Si1595   Si       0.27795    0.74762    0.33620    1.000
    N1596    N        0.27172    0.66593    0.34459    1.000
    Si1597   Si       0.26443    0.72917    0.27308    1.000
    N1598    N        0.24862    0.72462    0.31320    1.000
    Si1599   Si       0.23582    0.68647    0.32849    1.000
    N1600    N        0.24229    0.64722    0.24213    1.000
    N1601    N        0.26152    0.58239    0.43868    1.000
    Si1602   Si       0.24503    0.54768    0.41600    1.000
    Si1603   Si       0.24621    0.62364    0.44564    1.000
    N1604    N        0.23081    0.52000    0.44661    1.000
    N1605    N        0.23334    0.64047    0.40938    1.000
    Si1606   Si       0.22989    0.68542    0.40925    1.000
    N1607    N        0.27840    0.69054    0.40690    1.000
    N1608    N        0.27115    0.75254    0.38035    1.000
    N1609    N        0.23299    0.72520    0.43010    1.000
    N1610    N        0.27934    0.64718    0.46050    1.000
    Si1611   Si       0.27564    0.73476    0.42179    1.000
    Si1612   Si       0.26865    0.57436    0.53184    1.000
    Si1613   Si       0.26720    0.52724    0.57473    1.000
    N1614    N        0.26245    0.57229    0.57768    1.000
    N1615    N        0.22992    0.59329    0.52689    1.000
    Si1616   Si       0.22750    0.60418    0.58059    1.000
    N1617    N        0.28210    0.50805    0.61074    1.000
    N1618    N        0.28451    0.53072    0.53501    1.000
    N1619    N        0.26740    0.63426    0.58976    1.000
    N1620    N        0.25658    0.65347    0.52289    1.000
    N1621    N        0.24408    0.70854    0.57304    1.000
    Si1622   Si       0.25460    0.66655    0.56355    1.000
    Si1623   Si       0.28456    0.72129    0.58341    1.000
    Si1624   Si       0.24172    0.57622    0.71632    1.000
    N1625    N        0.24354    0.53908    0.69293    1.000
    Si1626   Si       0.25970    0.63054    0.63395    1.000
    Si1627   Si       0.23446    0.74521    0.69991    1.000
    N1628    N        0.26569    0.72438    0.72057    1.000
    N1629    N        0.26354    0.66954    0.64980    1.000
    N1630    N        0.25948    0.55865    0.85504    1.000
    Si1631   Si       0.24656    0.63036    0.78391    1.000
    N1632    N        0.28202    0.63746    0.80665    1.000
    N1633    N        0.25525    0.61225    0.74510    1.000
    N1634    N        0.23605    0.63369    0.86064    1.000
    N1635    N        0.23776    0.67137    0.76948    1.000
    Si1636   Si       0.27288    0.74994    0.79757    1.000
    N1637    N        0.23156    0.73581    0.79872    1.000
    Si1638   Si       0.27750    0.64413    0.85007    1.000
    Si1639   Si       0.27088    0.69308    0.75048    1.000
    N1640    N        0.26246    0.52633    0.92367    1.000
    Si1641   Si       0.24827    0.59399    0.88107    1.000
    N1642    N        0.26108    0.59554    0.92552    1.000
    Si1643   Si       0.27170    0.56109    0.95024    1.000
    N1644    N        0.25700    0.54536    0.98737    1.000
    N1645    N        0.26025    0.72610    0.94819    1.000
    Si1646   Si       0.27496    0.70003    0.89108    1.000
    Si1647   Si       0.27054    0.71554    0.99163    1.000
    N1648    N        0.23196    0.70909    0.88939    1.000
    N1649    N        0.28176    0.66697    0.91602    1.000
    Si1650   Si       0.26404    0.85422    0.02021    1.000
    N1651    N        0.25094    0.77410    0.05690    1.000
    N1652    N        0.26935    0.82439    0.10347    1.000
    Si1653   Si       0.23674    0.81079    0.07811    1.000
    N1654    N        0.23235    0.83989    0.04626    1.000
    Si1655   Si       0.22539    0.76054    0.02379    1.000
    N1656    N        0.28177    0.89639    0.08394    1.000
    N1657    N        0.25809    0.89800    0.01996    1.000
    N1658    N        0.26281    0.95975    0.05821    1.000
    N1659    N        0.22187    0.00490    0.02282    1.000
    N1660    N        0.23205    0.86939    0.20431    1.000
    N1661    N        0.26123    0.77502    0.14969    1.000
    Si1662   Si       0.26561    0.87248    0.23123    1.000
    Si1663   Si       0.24348    0.85757    0.16559    1.000
    N1664    N        0.28229    0.83316    0.23558    1.000
    N1665    N        0.22773    0.96070    0.13464    1.000
    Si1666   Si       0.24752    0.92484    0.14569    1.000
    Si1667   Si       0.27697    0.94050    0.20862    1.000
    N1668    N        0.23679    0.93324    0.19019    1.000
    N1669    N        0.23025    0.88666    0.13608    1.000
    N1670    N        0.23825    0.00092    0.20311    1.000
    N1671    N        0.25737    0.85613    0.32019    1.000
    Si1672   Si       0.25133    0.81797    0.33866    1.000
    Si1673   Si       0.22875    0.86124    0.28957    1.000
    N1674    N        0.28073    0.76718    0.25889    1.000
    N1675    N        0.27971    0.79001    0.32440    1.000
    Si1676   Si       0.25458    0.79965    0.24589    1.000
    N1677    N        0.24675    0.89221    0.26336    1.000
    N1678    N        0.25104    0.94775    0.31215    1.000
    Si1679   Si       0.26921    0.92501    0.27900    1.000
    Si1680   Si       0.26875    0.98568    0.31995    1.000
    N1681    N        0.27340    0.90108    0.36778    1.000
    Si1682   Si       0.25597    0.99874    0.24951    1.000
    N1683    N        0.26727    0.95742    0.24876    1.000
    Si1684   Si       0.27801    0.80522    0.46639    1.000
    N1685    N        0.25790    0.82373    0.38052    1.000
    Si1686   Si       0.25246    0.78726    0.40084    1.000
    Si1687   Si       0.25839    0.85266    0.41160    1.000
    N1688    N        0.24979    0.83551    0.44906    1.000
    N1689    N        0.27717    0.77776    0.43522    1.000
    Si1690   Si       0.27990    0.87430    0.46779    1.000
    N1691    N        0.22513    0.88112    0.40630    1.000
    Si1692   Si       0.23913    0.91782    0.38606    1.000
    N1693    N        0.24180    0.94175    0.42259    1.000
    N1694    N        0.26348    0.00715    0.41461    1.000
    N1695    N        0.23913    0.89221    0.47662    1.000
    Si1696   Si       0.27470    0.96719    0.43329    1.000
    N1697    N        0.25071    0.81112    0.57506    1.000
    N1698    N        0.26005    0.79204    0.50336    1.000
    Si1699   Si       0.25692    0.82354    0.61604    1.000
    Si1700   Si       0.27642    0.79381    0.54423    1.000
    N1701    N        0.27432    0.86314    0.61613    1.000
    N1702    N        0.27002    0.99092    0.58882    1.000
    N1703    N        0.25393    0.92826    0.60142    1.000
    N1704    N        0.26218    0.93803    0.53017    1.000
    Si1705   Si       0.25165    0.95647    0.56973    1.000
    Si1706   Si       0.24170    0.89183    0.61743    1.000
    Si1707   Si       0.22759    0.91824    0.51279    1.000
    N1708    N        0.24318    0.78750    0.68976    1.000
    N1709    N        0.24207    0.87443    0.72887    1.000
    Si1710   Si       0.27332    0.97193    0.73461    1.000
    Si1711   Si       0.23785    0.90795    0.70098    1.000
    N1712    N        0.27345    0.92978    0.71777    1.000
    N1713    N        0.23958    0.99580    0.72035    1.000
    N1714    N        0.23814    0.91003    0.65802    1.000
    Si1715   Si       0.24524    0.94917    0.63762    1.000
    Si1716   Si       0.27629    0.89608    0.74693    1.000
    Si1717   Si       0.25210    0.81614    0.78627    1.000
    N1718    N        0.27773    0.84840    0.79862    1.000
    N1719    N        0.27838    0.78548    0.77310    1.000
    N1720    N        0.22599    0.80441    0.82026    1.000
    Si1721   Si       0.25720    0.88482    0.81423    1.000
    N1722    N        0.25289    0.95806    0.84036    1.000
    N1723    N        0.26568    0.91385    0.78326    1.000
    Si1724   Si       0.27236    0.95233    0.80151    1.000
    N1725    N        0.27820    0.89691    0.85097    1.000
    N1726    N        0.23867    0.84762    0.87370    1.000
    N1727    N        0.23246    0.78647    0.98874    1.000
    N1728    N        0.27369    0.84514    0.98007    1.000
    Si1729   Si       0.25985    0.80940    0.96111    1.000
    Si1730   Si       0.27845    0.86498    0.88012    1.000
    N1731    N        0.27862    0.88088    0.91989    1.000
    N1732    N        0.22566    0.82040    0.93766    1.000
    N1733    N        0.24643    0.92472    0.95694    1.000
    Si1734   Si       0.25880    0.92093    0.91622    1.000
    Si1735   Si       0.22791    0.90973    0.99059    1.000
    N1736    N        0.22512    0.92444    0.88928    1.000
    N1737    N        0.31394    0.06220    0.07988    1.000
    N1738    N        0.31835    0.09397    0.01118    1.000
    Si1739   Si       0.33742    0.08648    0.04974    1.000
    N1740    N        0.29364    0.01280    0.02606    1.000
    N1741    N        0.30881    0.19203    0.06761    1.000
    Si1742   Si       0.32050    0.15522    0.04977    1.000
    Si1743   Si       0.32885    0.22964    0.05662    1.000
    Si1744   Si       0.32001    0.07262    0.17960    1.000
    N1745    N        0.32566    0.10253    0.20999    1.000
    Si1746   Si       0.34017    0.13187    0.17814    1.000
    N1747    N        0.28796    0.02779    0.22805    1.000
    Si1748   Si       0.32247    0.19641    0.15145    1.000
    Si1749   Si       0.28655    0.21695    0.20759    1.000
    N1750    N        0.30668    0.15714    0.16478    1.000
    N1751    N        0.30459    0.19600    0.23773    1.000
    N1752    N        0.29220    0.21734    0.13008    1.000
    N1753    N        0.32203    0.22352    0.18360    1.000
    Si1754   Si       0.28659    0.25258    0.15677    1.000
    Si1755   Si       0.31353    0.03356    0.26358    1.000
    Si1756   Si       0.31083    0.08958    0.36187    1.000
    N1757    N        0.32749    0.07266    0.27241    1.000
    Si1758   Si       0.32566    0.11097    0.25073    1.000
    N1759    N        0.28673    0.12860    0.26378    1.000
    N1760    N        0.33571    0.18005    0.35579    1.000
    N1761    N        0.30555    0.23824    0.33173    1.000
    Si1762   Si       0.32176    0.19876    0.32137    1.000
    N1763    N        0.28659    0.18628    0.30092    1.000
    N1764    N        0.29219    0.12487    0.45694    1.000
    N1765    N        0.29276    0.05314    0.37969    1.000
    N1766    N        0.33025    0.07264    0.43672    1.000
    Si1767   Si       0.30078    0.04388    0.42279    1.000
    N1768    N        0.31703    0.12216    0.39036    1.000
    Si1769   Si       0.32696    0.11483    0.43165    1.000
    N1770    N        0.32569    0.00672    0.42169    1.000
    N1771    N        0.31253    0.07881    0.49704    1.000
    N1772    N        0.33990    0.23768    0.40361    1.000
    Si1773   Si       0.30556    0.16443    0.38215    1.000
    N1774    N        0.33738    0.21370    0.47047    1.000
    N1775    N        0.30374    0.17987    0.42231    1.000
    Si1776   Si       0.31711    0.22126    0.43285    1.000
    N1777    N        0.30229    0.11411    0.56042    1.000
    N1778    N        0.29605    0.04784    0.56246    1.000
    Si1779   Si       0.29199    0.08121    0.53468    1.000
    Si1780   Si       0.33177    0.10895    0.59065    1.000
    Si1781   Si       0.33291    0.04177    0.58048    1.000
    N1782    N        0.32716    0.02506    0.62052    1.000
    N1783    N        0.30682    0.09244    0.62392    1.000
    N1784    N        0.31282    0.23533    0.53112    1.000
    Si1785   Si       0.30252    0.22287    0.57222    1.000
    N1786    N        0.33408    0.21801    0.60490    1.000
    Si1787   Si       0.31413    0.19791    0.50725    1.000
    N1788    N        0.33683    0.16292    0.51452    1.000
    N1789    N        0.29095    0.18339    0.56473    1.000
    Si1790   Si       0.33157    0.17850    0.62259    1.000
    N1791    N        0.30720    0.05378    0.68457    1.000
    Si1792   Si       0.32703    0.06125    0.64633    1.000
    Si1793   Si       0.32672    0.01900    0.70123    1.000
    N1794    N        0.30737    0.12449    0.69908    1.000
    Si1795   Si       0.34034    0.11944    0.72842    1.000
    N1796    N        0.29596    0.19368    0.71234    1.000
    Si1797   Si       0.32242    0.18874    0.74768    1.000
    Si1798   Si       0.29652    0.23765    0.69817    1.000
    Si1799   Si       0.30123    0.16372    0.67935    1.000
    Si1800   Si       0.33803    0.25472    0.62950    1.000
    N1801    N        0.29126    0.17554    0.63853    1.000
    N1802    N        0.29568    0.04746    0.79656    1.000
    N1803    N        0.32377    0.10252    0.76281    1.000
    Si1804   Si       0.29802    0.11502    0.83731    1.000
    Si1805   Si       0.31540    0.01442    0.77676    1.000
    N1806    N        0.33857    0.10777    0.82808    1.000
    N1807    N        0.29609    0.01281    0.86314    1.000
    N1808    N        0.29106    0.08053    0.86361    1.000
    Si1809   Si       0.28569    0.08438    0.77345    1.000
    N1810    N        0.29148    0.15232    0.86051    1.000
    N1811    N        0.31254    0.22352    0.84722    1.000
    Si1812   Si       0.32398    0.18379    0.86462    1.000
    N1813    N        0.29714    0.18979    0.78140    1.000
    Si1814   Si       0.29058    0.22641    0.80937    1.000
    Si1815   Si       0.33345    0.25739    0.86617    1.000
    Si1816   Si       0.33919    0.25824    0.75760    1.000
    Si1817   Si       0.28259    0.13177    0.94718    1.000
    N1818    N        0.30348    0.08999    0.94017    1.000
    N1819    N        0.33481    0.03803    0.97324    1.000
    Si1820   Si       0.33149    0.08074    0.97147    1.000
    Si1821   Si       0.30587    0.00844    0.98626    1.000
    N1822    N        0.28868    0.22435    0.96833    1.000
    Si1823   Si       0.32628    0.24822    0.97899    1.000
    N1824    N        0.32004    0.15140    0.95692    1.000
    Si1825   Si       0.30603    0.19192    0.94190    1.000
    N1826    N        0.32915    0.19803    0.90465    1.000
    N1827    N        0.32031    0.32051    0.02303    1.000
    N1828    N        0.29690    0.32137    0.09331    1.000
    Si1829   Si       0.32272    0.30030    0.06444    1.000
    N1830    N        0.30320    0.26209    0.07021    1.000
    N1831    N        0.30799    0.38603    0.03107    1.000
    N1832    N        0.31923    0.44763    0.07070    1.000
    Si1833   Si       0.30714    0.40536    0.07159    1.000
    N1834    N        0.30737    0.50730    0.08570    1.000
    N1835    N        0.28353    0.38315    0.21516    1.000
    N1836    N        0.29726    0.34768    0.15480    1.000
    Si1837   Si       0.30115    0.35477    0.24284    1.000
    N1838    N        0.32362    0.27609    0.15245    1.000
    Si1839   Si       0.31257    0.31197    0.13317    1.000
    Si1840   Si       0.32726    0.37038    0.13467    1.000
    N1841    N        0.33888    0.34014    0.22842    1.000
    Si1842   Si       0.28856    0.48008    0.19120    1.000
    Si1843   Si       0.32365    0.50317    0.12506    1.000
    N1844    N        0.32777    0.46919    0.20490    1.000
    N1845    N        0.29122    0.48003    0.14765    1.000
    N1846    N        0.29960    0.37398    0.28174    1.000
    Si1847   Si       0.29148    0.29588    0.28535    1.000
    N1848    N        0.33446    0.35263    0.33470    1.000
    Si1849   Si       0.29214    0.35640    0.32063    1.000
    N1850    N        0.33666    0.30065    0.28512    1.000
    Si1851   Si       0.30997    0.46923    0.28514    1.000
    N1852    N        0.30959    0.43853    0.25639    1.000
    Si1853   Si       0.33631    0.49831    0.34354    1.000
    N1854    N        0.28847    0.44697    0.31342    1.000
    N1855    N        0.28905    0.50546    0.27040    1.000
    N1856    N        0.29470    0.50616    0.34309    1.000
    Si1857   Si       0.29638    0.34928    0.41090    1.000
    N1858    N        0.33571    0.36639    0.40585    1.000
    N1859    N        0.33504    0.35545    0.47592    1.000
    N1860    N        0.30018    0.31467    0.43665    1.000
    Si1861   Si       0.33678    0.31453    0.46002    1.000
    N1862    N        0.33867    0.28780    0.49391    1.000
    Si1863   Si       0.31850    0.25842    0.36995    1.000
    N1864    N        0.32542    0.42473    0.43778    1.000
    N1865    N        0.29517    0.50223    0.47088    1.000
    Si1866   Si       0.30451    0.27628    0.51940    1.000
    N1867    N        0.29426    0.37125    0.53916    1.000
    Si1868   Si       0.29478    0.29180    0.58927    1.000
    N1869    N        0.29448    0.30532    0.54945    1.000
    Si1870   Si       0.33236    0.36964    0.51730    1.000
    N1871    N        0.33575    0.29084    0.60386    1.000
    Si1872   Si       0.30523    0.50043    0.51241    1.000
    N1873    N        0.30294    0.45946    0.52614    1.000
    N1874    N        0.31775    0.42347    0.57895    1.000
    Si1875   Si       0.32583    0.44283    0.61667    1.000
    Si1876   Si       0.33832    0.43967    0.54386    1.000
    Si1877   Si       0.30872    0.34347    0.64068    1.000
    N1878    N        0.32405    0.32364    0.67863    1.000
    N1879    N        0.31476    0.26843    0.72334    1.000
    Si1880   Si       0.29867    0.30792    0.71322    1.000
    N1881    N        0.29705    0.38181    0.65995    1.000
    N1882    N        0.30488    0.25390    0.65803    1.000
    Si1883   Si       0.30287    0.46975    0.71238    1.000
    Si1884   Si       0.31326    0.40014    0.69606    1.000
    N1885    N        0.28440    0.44416    0.63175    1.000
    N1886    N        0.32987    0.44097    0.69801    1.000
    Si1887   Si       0.31813    0.36654    0.82150    1.000
    N1888    N        0.32408    0.32512    0.80812    1.000
    Si1889   Si       0.29224    0.30205    0.78729    1.000
    N1890    N        0.29039    0.35894    0.85176    1.000
    N1891    N        0.30836    0.26115    0.78924    1.000
    N1892    N        0.28700    0.32687    0.74931    1.000
    Si1893   Si       0.33774    0.42355    0.85330    1.000
    N1894    N        0.30075    0.38597    0.78818    1.000
    Si1895   Si       0.28567    0.45738    0.83740    1.000
    N1896    N        0.29595    0.46275    0.75626    1.000
    Si1897   Si       0.30861    0.42717    0.77869    1.000
    N1898    N        0.32478    0.44816    0.81780    1.000
    N1899    N        0.29083    0.49623    0.86071    1.000
    Si1900   Si       0.31551    0.50311    0.76796    1.000
    N1901    N        0.29626    0.42570    0.86731    1.000
    N1902    N        0.30259    0.29213    0.87857    1.000
    N1903    N        0.28822    0.34894    0.96674    1.000
    Si1904   Si       0.29507    0.31223    0.98769    1.000
    Si1905   Si       0.32313    0.36830    0.95013    1.000
    Si1906   Si       0.32315    0.29697    0.91758    1.000
    N1907    N        0.31105    0.28454    0.95803    1.000
    N1908    N        0.33515    0.34001    0.91930    1.000
    N1909    N        0.33291    0.50149    0.91582    1.000
    N1910    N        0.30926    0.49310    0.97831    1.000
    Si1911   Si       0.28669    0.42151    0.90976    1.000
    Si1912   Si       0.29060    0.49709    0.90594    1.000
    N1913    N        0.32102    0.40842    0.93203    1.000
    N1914    N        0.30947    0.54011    0.02680    1.000
    N1915    N        0.31440    0.61055    0.10659    1.000
    N1916    N        0.30227    0.61121    0.02626    1.000
    Si1917   Si       0.31768    0.57581    0.00426    1.000
    Si1918   Si       0.33531    0.52570    0.05889    1.000
    Si1919   Si       0.29397    0.62134    0.06846    1.000
    Si1920   Si       0.34263    0.57383    0.11592    1.000
    Si1921   Si       0.28397    0.51441    0.00406    1.000
    Si1922   Si       0.28872    0.75047    0.05730    1.000
    N1923    N        0.30129    0.66437    0.06085    1.000
    N1924    N        0.29446    0.74051    0.01626    1.000
    Si1925   Si       0.31232    0.65344    0.01974    1.000
    Si1926   Si       0.30158    0.68375    0.09850    1.000
    N1927    N        0.28853    0.72547    0.09540    1.000
    Si1928   Si       0.33161    0.75357    0.99965    1.000
    Si1929   Si       0.29600    0.53401    0.23774    1.000
    N1930    N        0.31978    0.54495    0.14047    1.000
    N1931    N        0.31204    0.63079    0.23673    1.000
    N1932    N        0.33992    0.53378    0.23499    1.000
    Si1933   Si       0.34438    0.63549    0.13172    1.000
    Si1934   Si       0.31294    0.67970    0.16474    1.000
    N1935    N        0.31459    0.72385    0.16132    1.000
    N1936    N        0.33592    0.64395    0.17325    1.000
    N1937    N        0.28208    0.66324    0.13339    1.000
    N1938    N        0.29954    0.58443    0.34480    1.000
    N1939    N        0.33180    0.57987    0.28315    1.000
    Si1940   Si       0.29838    0.59901    0.26550    1.000
    Si1941   Si       0.34063    0.57845    0.32686    1.000
    Si1942   Si       0.32652    0.70342    0.28945    1.000
    N1943    N        0.31094    0.72165    0.32753    1.000
    N1944    N        0.33610    0.66131    0.36403    1.000
    N1945    N        0.29041    0.69455    0.26647    1.000
    Si1946   Si       0.30359    0.69156    0.36566    1.000
    N1947    N        0.33151    0.55975    0.45922    1.000
    N1948    N        0.32549    0.60376    0.40793    1.000
    Si1949   Si       0.30276    0.57429    0.42770    1.000
    Si1950   Si       0.33579    0.51716    0.46124    1.000
    Si1951   Si       0.33729    0.58645    0.49475    1.000
    N1952    N        0.28546    0.54395    0.39870    1.000
    Si1953   Si       0.33195    0.73709    0.48267    1.000
    N1954    N        0.29917    0.72056    0.45832    1.000
    Si1955   Si       0.30048    0.67916    0.44304    1.000
    N1956    N        0.33193    0.72086    0.38810    1.000
    N1957    N        0.34106    0.66910    0.43539    1.000
    Si1958   Si       0.29916    0.59524    0.59780    1.000
    N1959    N        0.30017    0.60101    0.51211    1.000
    N1960    N        0.32556    0.55767    0.59321    1.000
    N1961    N        0.33729    0.61583    0.58778    1.000
    N1962    N        0.30178    0.68776    0.56263    1.000
    Si1963   Si       0.33538    0.68848    0.53809    1.000
    N1964    N        0.32513    0.66850    0.50229    1.000
    Si1965   Si       0.29107    0.64247    0.50111    1.000
    N1966    N        0.28764    0.75703    0.55978    1.000
    Si1967   Si       0.32063    0.52439    0.61983    1.000
    N1968    N        0.31510    0.51042    0.72364    1.000
    Si1969   Si       0.28812    0.53178    0.69584    1.000
    Si1970   Si       0.31380    0.58557    0.67296    1.000
    N1971    N        0.32821    0.62239    0.70243    1.000
    Si1972   Si       0.30030    0.61093    0.73439    1.000
    N1973    N        0.31328    0.53880    0.66133    1.000
    N1974    N        0.28949    0.60065    0.64001    1.000
    N1975    N        0.28810    0.57600    0.70954    1.000
    N1976    N        0.31766    0.69498    0.68799    1.000
    N1977    N        0.29201    0.72837    0.62407    1.000
    Si1978   Si       0.30017    0.69105    0.64803    1.000
    N1979    N        0.30097    0.66119    0.74514    1.000
    N1980    N        0.33453    0.67310    0.62852    1.000
    Si1981   Si       0.30968    0.73410    0.70674    1.000
    N1982    N        0.33273    0.75289    0.73820    1.000
    Si1983   Si       0.33368    0.66498    0.71553    1.000
    N1984    N        0.31976    0.56114    0.82800    1.000
    N1985    N        0.32872    0.60745    0.76971    1.000
    Si1986   Si       0.32663    0.58738    0.86093    1.000
    Si1987   Si       0.28760    0.53260    0.83504    1.000
    N1988    N        0.29016    0.71157    0.78429    1.000
    N1989    N        0.30420    0.75186    0.82982    1.000
    Si1990   Si       0.31818    0.64717    0.78396    1.000
    Si1991   Si       0.31107    0.70710    0.82192    1.000
    Si1992   Si       0.32782    0.75301    0.86579    1.000
    N1993    N        0.33927    0.67584    0.80831    1.000
    N1994    N        0.28922    0.68608    0.85207    1.000
    N1995    N        0.29278    0.61275    0.87503    1.000
    N1996    N        0.31309    0.57041    0.95940    1.000
    Si1997   Si       0.29355    0.62609    0.91827    1.000
    N1998    N        0.33718    0.62486    0.92569    1.000
    N1999    N        0.34439    0.56519    0.89131    1.000
    N2000    N        0.30020    0.73511    0.89399    1.000
    N2001    N        0.32657    0.73993    0.95659    1.000
    Si2002   Si       0.29276    0.74922    0.93261    1.000
    N2003    N        0.29059    0.67697    0.99156    1.000
    N2004    N        0.32476    0.77762    0.06264    1.000
    N2005    N        0.29745    0.83975    0.04349    1.000
    Si2006   Si       0.33012    0.81258    0.03803    1.000
    N2007    N        0.32979    0.86306    0.10752    1.000
    Si2008   Si       0.29274    0.85401    0.08370    1.000
    N2009    N        0.33850    0.79770    0.99874    1.000
    N2010    N        0.31983    0.93472    0.03992    1.000
    N2011    N        0.33043    0.99471    0.07841    1.000
    Si2012   Si       0.28810    0.99547    0.06488    1.000
    Si2013   Si       0.31263    0.90217    0.11716    1.000
    N2014    N        0.33882    0.93564    0.11044    1.000
    Si2015   Si       0.27958    0.91903    0.05007    1.000
    Si2016   Si       0.33253    0.93479    0.99755    1.000
    Si2017   Si       0.28835    0.80752    0.13793    1.000
    N2018    N        0.32445    0.78445    0.20726    1.000
    N2019    N        0.32438    0.78496    0.13726    1.000
    Si2020   Si       0.31183    0.82825    0.20167    1.000
    N2021    N        0.28371    0.84034    0.16855    1.000
    Si2022   Si       0.33735    0.75944    0.17275    1.000
    Si2023   Si       0.32854    0.94685    0.15815    1.000
    N2024    N        0.29047    0.92172    0.14811    1.000
    N2025    N        0.29355    0.90227    0.21903    1.000
    Si2026   Si       0.33678    0.90066    0.21619    1.000
    N2027    N        0.30697    0.96675    0.19174    1.000
    Si2028   Si       0.32246    0.00472    0.20541    1.000
    N2029    N        0.31922    0.84734    0.33686    1.000
    Si2030   Si       0.32171    0.80629    0.32207    1.000
    Si2031   Si       0.32233    0.77414    0.25096    1.000
    N2032    N        0.34146    0.79545    0.28510    1.000
    Si2033   Si       0.29045    0.87912    0.33163    1.000
    N2034    N        0.34346    0.78439    0.35250    1.000
    N2035    N        0.30206    0.90698    0.29957    1.000
    N2036    N        0.29434    0.98909    0.35608    1.000
    N2037    N        0.28642    0.01197    0.28826    1.000
    N2038    N        0.29526    0.87379    0.42496    1.000
    N2039    N        0.30653    0.83919    0.47705    1.000
    Si2040   Si       0.33023    0.85042    0.44077    1.000
    N2041    N        0.33465    0.78147    0.47966    1.000
    N2042    N        0.29478    0.97226    0.47262    1.000
    Si2043   Si       0.32290    0.97893    0.38767    1.000
    Si2044   Si       0.33318    0.98630    0.45993    1.000
    N2045    N        0.30933    0.90837    0.48228    1.000
    N2046    N        0.30482    0.94550    0.40875    1.000
    Si2047   Si       0.30746    0.90374    0.39508    1.000
    N2048    N        0.31503    0.81514    0.54142    1.000
    Si2049   Si       0.33646    0.81881    0.50258    1.000
    N2050    N        0.34497    0.77192    0.60665    1.000
    Si2051   Si       0.29745    0.94357    0.50583    1.000
    N2052    N        0.32788    0.95776    0.53209    1.000
    Si2053   Si       0.30342    0.98636    0.61649    1.000
    N2054    N        0.34240    0.96687    0.60628    1.000
    Si2055   Si       0.31168    0.84798    0.63375    1.000
    N2056    N        0.30473    0.81420    0.71597    1.000
    N2057    N        0.32549    0.86561    0.67150    1.000
    N2058    N        0.28850    0.80679    0.64053    1.000
    Si2059   Si       0.32827    0.85185    0.71367    1.000
    Si2060   Si       0.31131    0.76718    0.63194    1.000
    N2061    N        0.31140    0.76409    0.67653    1.000
    Si2062   Si       0.28382    0.79727    0.68221    1.000
    N2063    N        0.31492    0.87806    0.74587    1.000
    N2064    N        0.30539    0.98338    0.70922    1.000
    N2065    N        0.28569    0.96285    0.64815    1.000
    Si2066   Si       0.30258    0.94743    0.68566    1.000
    Si2067   Si       0.31915    0.85542    0.78420    1.000
    N2068    N        0.33893    0.81609    0.77569    1.000
    Si2069   Si       0.31460    0.79005    0.75038    1.000
    N2070    N        0.31086    0.94372    0.82126    1.000
    Si2071   Si       0.28836    0.93859    0.85948    1.000
    N2072    N        0.28261    0.98371    0.77317    1.000
    N2073    N        0.31820    0.84799    0.87761    1.000
    N2074    N        0.33131    0.83821    0.94371    1.000
    Si2075   Si       0.31892    0.81498    0.90984    1.000
    Si2076   Si       0.30126    0.86733    0.95547    1.000
    N2077    N        0.28649    0.79292    0.93156    1.000
    Si2078   Si       0.31929    0.96427    0.92956    1.000
    Si2079   Si       0.33767    0.00626    0.87278    1.000
    N2080    N        0.31897    0.89784    0.97761    1.000
    N2081    N        0.31851    0.97015    0.97385    1.000
    N2082    N        0.29029    0.94724    0.90200    1.000
    N2083    N        0.33437    0.00244    0.91653    1.000
    N2084    N        0.36869    0.05539    0.05150    1.000
    N2085    N        0.34984    0.12598    0.06331    1.000
    Si2086   Si       0.34788    0.03439    0.08529    1.000
    Si2087   Si       0.39532    0.12775    0.07329    1.000
    N2088    N        0.37154    0.03968    0.12097    1.000
    N2089    N        0.36816    0.22561    0.07480    1.000
    Si2090   Si       0.38711    0.20264    0.10574    1.000
    N2091    N        0.34495    0.24330    0.01763    1.000
    N2092    N        0.34711    0.17002    0.01447    1.000
    Si2093   Si       0.38837    0.25566    0.03155    1.000
    Si2094   Si       0.38100    0.07994    0.13613    1.000
    Si2095   Si       0.37447    0.01658    0.15777    1.000
    N2096    N        0.34339    0.09799    0.15134    1.000
    N2097    N        0.34274    0.03616    0.18296    1.000
    N2098    N        0.34483    0.00929    0.24503    1.000
    Si2099   Si       0.39394    0.15362    0.23771    1.000
    N2100    N        0.38808    0.24043    0.18205    1.000
    Si2101   Si       0.38338    0.19368    0.18244    1.000
    N2102    N        0.38002    0.14647    0.19141    1.000
    N2103    N        0.36436    0.19247    0.14194    1.000
    N2104    N        0.37798    0.19817    0.22673    1.000
    Si2105   Si       0.39207    0.24249    0.22686    1.000
    Si2106   Si       0.34926    0.25754    0.17963    1.000
    N2107    N        0.37415    0.02783    0.30120    1.000
    Si2108   Si       0.36250    0.06989    0.30211    1.000
    Si2109   Si       0.38524    0.10289    0.35929    1.000
    N2110    N        0.35033    0.08356    0.34255    1.000
    Si2111   Si       0.38454    0.02005    0.25883    1.000
    N2112    N        0.39419    0.09395    0.28580    1.000
    N2113    N        0.35120    0.20209    0.29198    1.000
    N2114    N        0.39065    0.14230    0.33777    1.000
    Si2115   Si       0.38164    0.17973    0.35756    1.000
    Si2116   Si       0.39394    0.20854    0.29226    1.000
    N2117    N        0.39183    0.24668    0.26986    1.000
    N2118    N        0.35370    0.14558    0.25532    1.000
    Si2119   Si       0.34340    0.18745    0.25208    1.000
    N2120    N        0.34396    0.01917    0.48721    1.000
    N2121    N        0.38465    0.07195    0.46487    1.000
    N2122    N        0.39716    0.11907    0.39767    1.000
    Si2123   Si       0.34454    0.06248    0.47611    1.000
    Si2124   Si       0.36722    0.14380    0.49094    1.000
    N2125    N        0.38928    0.18860    0.39906    1.000
    N2126    N        0.35781    0.13778    0.44965    1.000
    Si2127   Si       0.39125    0.15222    0.42598    1.000
    Si2128   Si       0.38108    0.22892    0.40762    1.000
    N2129    N        0.39880    0.17628    0.48274    1.000
    N2130    N        0.39350    0.23870    0.44776    1.000
    Si2131   Si       0.38023    0.21653    0.48131    1.000
    N2132    N        0.35991    0.07549    0.58404    1.000
    N2133    N        0.39229    0.11794    0.51139    1.000
    Si2134   Si       0.39095    0.05941    0.61400    1.000
    Si2135   Si       0.37112    0.01254    0.51925    1.000
    N2136    N        0.39820    0.01738    0.61804    1.000
    N2137    N        0.35226    0.01086    0.55852    1.000
    N2138    N        0.38634    0.23751    0.51831    1.000
    Si2139   Si       0.39280    0.16042    0.59402    1.000
    N2140    N        0.35145    0.14645    0.59709    1.000
    N2141    N        0.39837    0.18168    0.55572    1.000
    Si2142   Si       0.37620    0.05430    0.74413    1.000
    N2143    N        0.36833    0.07225    0.64797    1.000
    Si2144   Si       0.38956    0.09276    0.67899    1.000
    N2145    N        0.36826    0.08850    0.71678    1.000
    N2146    N        0.34053    0.02684    0.74197    1.000
    Si2147   Si       0.38711    0.18839    0.73951    1.000
    N2148    N        0.39439    0.18642    0.62665    1.000
    N2149    N        0.34426    0.16775    0.66416    1.000
    N2150    N        0.37718    0.25423    0.65058    1.000
    N2151    N        0.35284    0.15826    0.74215    1.000
    Si2152   Si       0.38631    0.16855    0.66609    1.000
    N2153    N        0.35546    0.21836    0.75024    1.000
    N2154    N        0.37368    0.06491    0.78640    1.000
    Si2155   Si       0.37283    0.03303    0.81749    1.000
    N2156    N        0.36199    0.03917    0.85792    1.000
    Si2157   Si       0.35756    0.10426    0.78978    1.000
    Si2158   Si       0.37601    0.12447    0.84244    1.000
    N2159    N        0.39089    0.13073    0.79996    1.000
    N2160    N        0.36011    0.16253    0.85651    1.000
    Si2161   Si       0.39452    0.18980    0.84711    1.000
    N2162    N        0.38288    0.22359    0.86837    1.000
    N2163    N        0.39514    0.09937    0.87404    1.000
    N2164    N        0.38030    0.05273    0.92645    1.000
    Si2165   Si       0.35940    0.02052    0.94441    1.000
    N2166    N        0.36879    0.10266    0.96940    1.000
    Si2167   Si       0.39309    0.05555    0.88350    1.000
    Si2168   Si       0.35720    0.14321    0.97981    1.000
    Si2169   Si       0.37197    0.20091    0.99425    1.000
    N2170    N        0.35347    0.21947    0.95846    1.000
    Si2171   Si       0.36667    0.22251    0.91582    1.000
    N2172    N        0.39260    0.16663    0.97240    1.000
    N2173    N        0.37500    0.35979    0.04875    1.000
    N2174    N        0.36415    0.29281    0.07388    1.000
    Si2175   Si       0.39434    0.27186    0.09716    1.000
    N2176    N        0.39553    0.29383    0.00844    1.000
    Si2177   Si       0.40239    0.33033    0.03110    1.000
    Si2178   Si       0.34117    0.35950    0.02275    1.000
    Si2179   Si       0.37875    0.38905    0.08221    1.000
    N2180    N        0.36392    0.49610    0.04736    1.000
    Si2181   Si       0.35821    0.46397    0.07666    1.000
    N2182    N        0.38855    0.43128    0.07291    1.000
    Si2183   Si       0.39211    0.50850    0.01646    1.000
    N2184    N        0.33788    0.39005    0.09795    1.000
    N2185    N        0.35422    0.27040    0.22099    1.000
    N2186    N        0.35262    0.33260    0.13110    1.000
    Si2187   Si       0.35961    0.36896    0.20183    1.000
    Si2188   Si       0.39524    0.33978    0.14020    1.000
    N2189    N        0.39444    0.34654    0.18549    1.000
    Si2190   Si       0.35600    0.30591    0.24619    1.000
    N2191    N        0.36125    0.48553    0.11588    1.000
    Si2192   Si       0.39764    0.48831    0.14582    1.000
    N2193    N        0.34283    0.38950    0.16786    1.000
    N2194    N        0.37668    0.47095    0.24446    1.000
    Si2195   Si       0.35789    0.50207    0.21331    1.000
    N2196    N        0.36508    0.40188    0.22754    1.000
    Si2197   Si       0.34568    0.44067    0.23098    1.000
    N2198    N        0.39289    0.49468    0.18682    1.000
    Si2199   Si       0.35459    0.31420    0.32361    1.000
    N2200    N        0.39741    0.30902    0.31458    1.000
    N2201    N        0.34526    0.29073    0.35975    1.000
    Si2202   Si       0.35777    0.36693    0.36888    1.000
    N2203    N        0.34807    0.47401    0.30530    1.000
    Si2204   Si       0.38623    0.46387    0.28648    1.000
    N2205    N        0.37563    0.40360    0.35287    1.000
    N2206    N        0.40276    0.42300    0.28385    1.000
    N2207    N        0.38857    0.33697    0.37420    1.000
    N2208    N        0.37068    0.30428    0.43480    1.000
    Si2209   Si       0.37190    0.30248    0.39113    1.000
    Si2210   Si       0.34578    0.45806    0.41778    1.000
    N2211    N        0.38907    0.44540    0.41327    1.000
    N2212    N        0.35975    0.49100    0.44064    1.000
    Si2213   Si       0.38394    0.44281    0.37082    1.000
    Si2214   Si       0.38867    0.41069    0.49055    1.000
    N2215    N        0.34767    0.46979    0.37371    1.000
    Si2216   Si       0.34407    0.38522    0.44349    1.000
    N2217    N        0.38565    0.39023    0.45308    1.000
    Si2218   Si       0.39915    0.47166    0.44517    1.000
    N2219    N        0.37548    0.29650    0.55143    1.000
    Si2220   Si       0.37647    0.27956    0.51201    1.000
    N2221    N        0.35939    0.36029    0.55001    1.000
    Si2222   Si       0.36046    0.32645    0.58322    1.000
    N2223    N        0.34101    0.35490    0.61377    1.000
    Si2224   Si       0.38614    0.39650    0.55495    1.000
    N2225    N        0.37933    0.44379    0.55629    1.000
    N2226    N        0.35108    0.41032    0.51404    1.000
    N2227    N        0.34047    0.48332    0.61746    1.000
    N2228    N        0.38906    0.36071    0.65883    1.000
    Si2229   Si       0.36340    0.34538    0.68935    1.000
    N2230    N        0.38433    0.31169    0.70385    1.000
    N2231    N        0.34510    0.37740    0.71121    1.000
    Si2232   Si       0.39377    0.31835    0.74504    1.000
    N2233    N        0.39497    0.42273    0.70783    1.000
    Si2234   Si       0.36988    0.44158    0.67740    1.000
    N2235    N        0.35742    0.42260    0.63925    1.000
    Si2236   Si       0.37149    0.38307    0.62531    1.000
    Si2237   Si       0.37052    0.39878    0.73709    1.000
    Si2238   Si       0.38317    0.48957    0.62699    1.000
    N2239    N        0.39171    0.47884    0.66820    1.000
    N2240    N        0.36460    0.29185    0.76561    1.000
    N2241    N        0.36101    0.27816    0.84154    1.000
    Si2242   Si       0.36083    0.30390    0.80605    1.000
    Si2243   Si       0.39135    0.36285    0.84061    1.000
    N2244    N        0.39629    0.33007    0.81061    1.000
    N2245    N        0.39396    0.36148    0.75065    1.000
    Si2246   Si       0.39807    0.26275    0.85849    1.000
    N2247    N        0.35399    0.38505    0.83802    1.000
    N2248    N        0.35554    0.49887    0.78292    1.000
    N2249    N        0.35167    0.42169    0.76720    1.000
    Si2250   Si       0.36073    0.45554    0.79363    1.000
    Si2251   Si       0.38690    0.46837    0.86381    1.000
    N2252    N        0.39116    0.45072    0.82492    1.000
    N2253    N        0.37011    0.50855    0.85113    1.000
    Si2254   Si       0.37667    0.34933    0.91153    1.000
    N2255    N        0.35348    0.36966    0.98176    1.000
    N2256    N        0.34959    0.26288    0.90613    1.000
    N2257    N        0.36360    0.44017    0.88287    1.000
    Si2258   Si       0.36084    0.42540    0.92469    1.000
    Si2259   Si       0.34696    0.49216    0.95761    1.000
    N2260    N        0.38493    0.38788    0.92643    1.000
    N2261    N        0.37279    0.45682    0.95282    1.000
    N2262    N        0.35847    0.55683    0.08052    1.000
    Si2263   Si       0.37825    0.61976    0.01738    1.000
    N2264    N        0.35891    0.58396    0.00882    1.000
    Si2265   Si       0.39723    0.56969    0.06549    1.000
    N2266    N        0.39698    0.61230    0.05668    1.000
    N2267    N        0.35686    0.65692    0.01487    1.000
    N2268    N        0.37453    0.73848    0.10048    1.000
    Si2269   Si       0.38070    0.69790    0.11389    1.000
    N2270    N        0.34129    0.67740    0.11768    1.000
    N2271    N        0.37395    0.73810    0.99429    1.000
    Si2272   Si       0.34826    0.63198    0.21450    1.000
    N2273    N        0.37254    0.60141    0.13044    1.000
    N2274    N        0.37246    0.59603    0.22422    1.000
    N2275    N        0.39544    0.69299    0.15343    1.000
    N2276    N        0.38239    0.75869    0.16977    1.000
    N2277    N        0.37396    0.66573    0.22639    1.000
    N2278    N        0.37292    0.61087    0.33094    1.000
    N2279    N        0.35503    0.53676    0.33756    1.000
    N2280    N        0.39047    0.56303    0.28654    1.000
    Si2281   Si       0.36080    0.56731    0.25497    1.000
    Si2282   Si       0.39627    0.53145    0.31831    1.000
    N2283    N        0.37770    0.73712    0.32359    1.000
    Si2284   Si       0.36479    0.65359    0.33414    1.000
    Si2285   Si       0.38617    0.66437    0.26873    1.000
    N2286    N        0.35290    0.66866    0.29462    1.000
    Si2287   Si       0.34549    0.74129    0.35206    1.000
    N2288    N        0.40281    0.67558    0.33975    1.000
    N2289    N        0.34288    0.73841    0.26647    1.000
    N2290    N        0.36376    0.61437    0.47919    1.000
    Si2291   Si       0.35707    0.65782    0.47412    1.000
    Si2292   Si       0.35975    0.70578    0.41867    1.000
    N2293    N        0.39818    0.70581    0.39844    1.000
    Si2294   Si       0.34674    0.64151    0.40147    1.000
    N2295    N        0.36569    0.73319    0.45502    1.000
    N2296    N        0.38838    0.63810    0.40216    1.000
    N2297    N        0.39426    0.67572    0.49002    1.000
    Si2298   Si       0.35455    0.58007    0.57004    1.000
    Si2299   Si       0.38340    0.53415    0.51601    1.000
    N2300    N        0.35843    0.56928    0.52864    1.000
    N2301    N        0.39588    0.58024    0.58183    1.000
    N2302    N        0.34905    0.50788    0.50464    1.000
    Si2303   Si       0.38019    0.75261    0.53962    1.000
    N2304    N        0.36932    0.66767    0.55502    1.000
    Si2305   Si       0.38246    0.75055    0.61193    1.000
    N2306    N        0.34627    0.72658    0.52222    1.000
    N2307    N        0.39502    0.73138    0.57533    1.000
    Si2308   Si       0.35573    0.65331    0.59415    1.000
    N2309    N        0.39386    0.65051    0.61790    1.000
    N2310    N        0.38415    0.53288    0.62289    1.000
    Si2311   Si       0.38572    0.57709    0.62761    1.000
    N2312    N        0.35626    0.58945    0.65678    1.000
    Si2313   Si       0.36833    0.61523    0.69025    1.000
    N2314    N        0.39531    0.59688    0.71751    1.000
    N2315    N        0.37794    0.65832    0.68546    1.000
    N2316    N        0.36614    0.66962    0.74737    1.000
    N2317    N        0.38490    0.72142    0.64798    1.000
    N2318    N        0.39175    0.72373    0.71540    1.000
    Si2319   Si       0.37360    0.68028    0.64667    1.000
    Si2320   Si       0.39602    0.68133    0.71660    1.000
    N2321    N        0.38472    0.56405    0.79707    1.000
    Si2322   Si       0.38303    0.52187    0.81027    1.000
    N2323    N        0.35322    0.61315    0.83582    1.000
    Si2324   Si       0.34692    0.58467    0.80172    1.000
    N2325    N        0.37856    0.72903    0.78448    1.000
    Si2326   Si       0.37611    0.68626    0.78614    1.000
    Si2327   Si       0.36514    0.65480    0.83926    1.000
    N2328    N        0.36521    0.73492    0.85043    1.000
    Si2329   Si       0.39316    0.74964    0.82010    1.000
    N2330    N        0.40041    0.66984    0.81660    1.000
    Si2331   Si       0.37503    0.74910    0.74696    1.000
    N2332    N        0.39556    0.52144    0.91579    1.000
    N2333    N        0.37319    0.51788    0.97893    1.000
    Si2334   Si       0.35979    0.52456    0.89067    1.000
    N2335    N        0.38581    0.58389    0.94549    1.000
    Si2336   Si       0.34508    0.58365    0.93098    1.000
    Si2337   Si       0.39912    0.54254    0.95401    1.000
    Si2338   Si       0.39161    0.67219    0.99010    1.000
    Si2339   Si       0.38257    0.71146    0.88143    1.000
    N2340    N        0.38183    0.73501    0.91713    1.000
    Si2341   Si       0.36730    0.65236    0.91658    1.000
    N2342    N        0.37384    0.67988    0.95284    1.000
    Si2343   Si       0.36611    0.72241    0.95395    1.000
    N2344    N        0.36227    0.67151    0.87756    1.000
    Si2345   Si       0.36614    0.84710    0.09082    1.000
    N2346    N        0.37715    0.80459    0.10155    1.000
    N2347    N        0.36431    0.83805    0.04941    1.000
    Si2348   Si       0.34731    0.77430    0.10155    1.000
    Si2349   Si       0.39838    0.83353    0.02457    1.000
    N2350    N        0.38700    0.94295    0.06338    1.000
    Si2351   Si       0.34607    0.95409    0.07114    1.000
    Si2352   Si       0.38546    0.85309    0.22276    1.000
    N2353    N        0.34413    0.85855    0.21288    1.000
    N2354    N        0.39932    0.81224    0.22119    1.000
    N2355    N        0.35220    0.91454    0.17775    1.000
    Si2356   Si       0.39492    0.91667    0.17635    1.000
    N2357    N        0.35737    0.97858    0.15744    1.000
    Si2358   Si       0.35511    0.86556    0.34842    1.000
    Si2359   Si       0.37347    0.76313    0.28889    1.000
    N2360    N        0.38421    0.84099    0.37196    1.000
    N2361    N        0.37373    0.88472    0.31221    1.000
    N2362    N        0.36477    0.94717    0.31502    1.000
    Si2363   Si       0.38357    0.98642    0.31188    1.000
    Si2364   Si       0.37227    0.93082    0.35886    1.000
    N2365    N        0.35744    0.91809    0.25053    1.000
    Si2366   Si       0.34621    0.91306    0.29361    1.000
    Si2367   Si       0.39412    0.94034    0.25014    1.000
    N2368    N        0.34126    0.90202    0.36891    1.000
    Si2369   Si       0.36415    0.80431    0.38518    1.000
    N2370    N        0.38365    0.77139    0.40495    1.000
    Si2371   Si       0.39344    0.86560    0.47342    1.000
    Si2372   Si       0.36693    0.78114    0.44614    1.000
    N2373    N        0.34476    0.81404    0.42310    1.000
    N2374    N        0.36172    0.87907    0.44542    1.000
    N2375    N        0.36517    0.95645    0.45860    1.000
    Si2376   Si       0.35248    0.91480    0.46932    1.000
    Si2377   Si       0.39642    0.99255    0.38326    1.000
    N2378    N        0.36145    0.96869    0.37592    1.000
    N2379    N        0.37628    0.79641    0.55058    1.000
    Si2380   Si       0.37850    0.85845    0.60532    1.000
    N2381    N        0.37165    0.84130    0.50312    1.000
    Si2382   Si       0.34067    0.80382    0.57542    1.000
    N2383    N        0.34201    0.83571    0.60485    1.000
    N2384    N        0.39729    0.86427    0.56719    1.000
    Si2385   Si       0.39870    0.83258    0.53859    1.000
    N2386    N        0.38684    0.93789    0.57464    1.000
    Si2387   Si       0.35489    0.96752    0.56332    1.000
    Si2388   Si       0.37373    0.93474    0.61519    1.000
    N2389    N        0.39344    0.97484    0.52478    1.000
    N2390    N        0.38669    0.90491    0.49571    1.000
    Si2391   Si       0.40112    0.80946    0.71486    1.000
    N2392    N        0.37136    0.84289    0.71694    1.000
    N2393    N        0.39118    0.96200    0.64333    1.000
    Si2394   Si       0.36353    0.99949    0.63272    1.000
    N2395    N        0.36325    0.89506    0.62335    1.000
    Si2396   Si       0.37247    0.96349    0.68336    1.000
    N2397    N        0.35896    0.00529    0.67580    1.000
    N2398    N        0.34109    0.93229    0.67946    1.000
    Si2399   Si       0.35878    0.89409    0.66641    1.000
    N2400    N        0.39822    0.95898    0.71518    1.000
    Si2401   Si       0.38129    0.81324    0.78098    1.000
    Si2402   Si       0.35431    0.86385    0.85649    1.000
    N2403    N        0.34963    0.87007    0.81321    1.000
    N2404    N        0.39098    0.79218    0.81633    1.000
    N2405    N        0.39233    0.84248    0.86380    1.000
    N2406    N        0.39541    0.78581    0.74886    1.000
    Si2407   Si       0.38420    0.89087    0.79006    1.000
    N2408    N        0.35525    0.96680    0.86220    1.000
    N2409    N        0.36744    0.93266    0.79028    1.000
    Si2410   Si       0.34980    0.96088    0.81953    1.000
    Si2411   Si       0.39112    0.94210    0.75553    1.000
    N2412    N        0.34576    0.00182    0.80441    1.000
    N2413    N        0.39368    0.90037    0.74644    1.000
    N2414    N        0.39199    0.80036    0.94461    1.000
    N2415    N        0.38842    0.84864    0.98500    1.000
    Si2416   Si       0.35950    0.82052    0.96953    1.000
    Si2417   Si       0.38523    0.77817    0.90782    1.000
    N2418    N        0.34570    0.78549    0.89312    1.000
    Si2419   Si       0.38811    0.94952    0.95721    1.000
    N2420    N        0.37901    0.90068    0.87334    1.000
    N2421    N        0.38837    0.99218    0.96232    1.000
    N2422    N        0.35674    0.93883    0.92798    1.000
    Si2423   Si       0.37628    0.94018    0.88872    1.000
    N2424    N        0.37517    0.93754    0.99790    1.000
    N2425    N        0.43646    0.04282    0.06283    1.000
    N2426    N        0.41741    0.10914    0.03866    1.000
    Si2427   Si       0.40935    0.06508    0.03897    1.000
    N2428    N        0.40376    0.10160    0.10583    1.000
    Si2429   Si       0.45471    0.12642    0.02404    1.000
    Si2430   Si       0.44756    0.17338    0.07637    1.000
    Si2431   Si       0.44882    0.20658    0.00918    1.000
    N2432    N        0.45240    0.16927    0.03380    1.000
    N2433    N        0.40703    0.22105    0.01003    1.000
    N2434    N        0.40582    0.16870    0.08682    1.000
    Si2435   Si       0.44474    0.11197    0.12051    1.000
    N2436    N        0.42495    0.12080    0.22872    1.000
    Si2437   Si       0.42769    0.04480    0.19634    1.000
    Si2438   Si       0.41182    0.11464    0.18681    1.000
    N2439    N        0.41388    0.04634    0.23919    1.000
    N2440    N        0.40437    0.07557    0.17100    1.000
    N2441    N        0.43643    0.25182    0.22286    1.000
    N2442    N        0.43547    0.13371    0.15672    1.000
    Si2443   Si       0.42714    0.23765    0.16178    1.000
    N2444    N        0.41054    0.23779    0.12130    1.000
    N2445    N        0.42654    0.19636    0.17614    1.000
    Si2446   Si       0.45734    0.16719    0.17092    1.000
    N2447    N        0.42239    0.08043    0.35612    1.000
    Si2448   Si       0.42401    0.08556    0.25646    1.000
    N2449    N        0.45047    0.12871    0.30693    1.000
    Si2450   Si       0.40673    0.13414    0.29961    1.000
    Si2451   Si       0.45518    0.10547    0.34339    1.000
    N2452    N        0.41330    0.17182    0.27532    1.000
    Si2453   Si       0.44631    0.22777    0.33037    1.000
    N2454    N        0.40618    0.20846    0.33435    1.000
    Si2455   Si       0.43415    0.04879    0.38107    1.000
    N2456    N        0.41370    0.01101    0.46313    1.000
    Si2457   Si       0.40799    0.04752    0.43963    1.000
    N2458    N        0.44772    0.06415    0.48311    1.000
    Si2459   Si       0.44011    0.11553    0.41052    1.000
    N2460    N        0.44273    0.07128    0.41954    1.000
    N2461    N        0.39862    0.03130    0.39805    1.000
    N2462    N        0.43443    0.14976    0.43809    1.000
    Si2463   Si       0.44209    0.16637    0.47861    1.000
    Si2464   Si       0.45088    0.10343    0.59228    1.000
    Si2465   Si       0.43532    0.02335    0.50228    1.000
    N2466    N        0.43503    0.07025    0.61305    1.000
    N2467    N        0.41989    0.12957    0.57675    1.000
    Si2468   Si       0.41008    0.08103    0.49889    1.000
    N2469    N        0.39969    0.04554    0.52160    1.000
    N2470    N        0.45298    0.14796    0.51664    1.000
    Si2471   Si       0.41407    0.22073    0.55018    1.000
    Si2472   Si       0.41468    0.14449    0.53726    1.000
    N2473    N        0.41013    0.24637    0.58604    1.000
    N2474    N        0.45485    0.22239    0.53771    1.000
    N2475    N        0.42980    0.08157    0.69202    1.000
    Si2476   Si       0.44776    0.06500    0.72659    1.000
    Si2477   Si       0.45182    0.11025    0.66715    1.000
    N2478    N        0.40294    0.13041    0.66368    1.000
    N2479    N        0.41841    0.03796    0.74471    1.000
    N2480    N        0.45971    0.01214    0.65237    1.000
    Si2481   Si       0.43514    0.21836    0.69274    1.000
    N2482    N        0.42228    0.25521    0.71190    1.000
    N2483    N        0.43813    0.22866    0.64976    1.000
    Si2484   Si       0.40294    0.22980    0.62464    1.000
    N2485    N        0.39922    0.19359    0.69773    1.000
    N2486    N        0.41518    0.01867    0.81259    1.000
    N2487    N        0.40875    0.19941    0.80708    1.000
    Si2488   Si       0.42154    0.16026    0.79462    1.000
    Si2489   Si       0.44077    0.22932    0.80676    1.000
    N2490    N        0.42518    0.15646    0.85372    1.000
    N2491    N        0.42512    0.16477    0.75030    1.000
    Si2492   Si       0.40088    0.07597    0.95575    1.000
    N2493    N        0.42981    0.03380    0.87860    1.000
    Si2494   Si       0.43027    0.12291    0.88102    1.000
    N2495    N        0.44187    0.07731    0.93780    1.000
    N2496    N        0.45080    0.01108    0.95509    1.000
    Si2497   Si       0.41990    0.01040    0.98476    1.000
    N2498    N        0.41144    0.05238    0.99466    1.000
    Si2499   Si       0.43870    0.24837    0.92286    1.000
    N2500    N        0.40991    0.21537    0.92647    1.000
    N2501    N        0.43208    0.14450    0.91923    1.000
    Si2502   Si       0.42566    0.17898    0.94601    1.000
    N2503    N        0.44011    0.33061    0.05571    1.000
    Si2504   Si       0.45106    0.31423    0.09396    1.000
    N2505    N        0.40619    0.37420    0.11509    1.000
    N2506    N        0.41505    0.30571    0.11802    1.000
    N2507    N        0.42007    0.26192    0.06268    1.000
    Si2508   Si       0.44764    0.38363    0.11599    1.000
    Si2509   Si       0.42708    0.44708    0.08990    1.000
    N2510    N        0.44077    0.48482    0.07399    1.000
    N2511    N        0.42293    0.47827    0.00537    1.000
    N2512    N        0.45542    0.41327    0.08471    1.000
    Si2513   Si       0.45591    0.48270    0.03248    1.000
    Si2514   Si       0.42396    0.33582    0.21810    1.000
    N2515    N        0.43187    0.37159    0.24252    1.000
    Si2516   Si       0.43933    0.43599    0.16944    1.000
    N2517    N        0.41797    0.45124    0.13378    1.000
    Si2518   Si       0.41414    0.47342    0.21952    1.000
    N2519    N        0.44920    0.48632    0.24020    1.000
    Si2520   Si       0.40650    0.40735    0.24325    1.000
    N2521    N        0.42155    0.43222    0.20841    1.000
    Si2522   Si       0.41887    0.33247    0.34320    1.000
    Si2523   Si       0.41206    0.28308    0.28280    1.000
    N2524    N        0.42956    0.37053    0.32837    1.000
    N2525    N        0.45028    0.31253    0.36470    1.000
    N2526    N        0.44704    0.25721    0.29531    1.000
    N2527    N        0.40135    0.31060    0.24631    1.000
    Si2528   Si       0.44295    0.48182    0.34547    1.000
    N2529    N        0.41422    0.45067    0.34126    1.000
    N2530    N        0.40839    0.50128    0.29200    1.000
    Si2531   Si       0.44996    0.50469    0.27927    1.000
    Si2532   Si       0.40706    0.40777    0.32350    1.000
    N2533    N        0.40946    0.29542    0.48802    1.000
    Si2534   Si       0.44153    0.27621    0.38805    1.000
    N2535    N        0.44724    0.28682    0.42968    1.000
    Si2536   Si       0.40657    0.27971    0.44576    1.000
    N2537    N        0.39962    0.26688    0.39231    1.000
    N2538    N        0.42971    0.50101    0.43752    1.000
    N2539    N        0.41033    0.45007    0.48081    1.000
    N2540    N        0.44480    0.29832    0.55111    1.000
    Si2541   Si       0.41033    0.29019    0.57518    1.000
    Si2542   Si       0.44761    0.30065    0.50692    1.000
    Si2543   Si       0.45416    0.37863    0.51893    1.000
    N2544    N        0.39890    0.31936    0.60569    1.000
    Si2545   Si       0.44637    0.38480    0.59589    1.000
    N2546    N        0.45054    0.45890    0.54327    1.000
    N2547    N        0.41294    0.39199    0.52139    1.000
    N2548    N        0.41749    0.47835    0.60172    1.000
    Si2549   Si       0.41031    0.47217    0.55906    1.000
    Si2550   Si       0.45047    0.44765    0.49921    1.000
    N2551    N        0.40327    0.39032    0.59663    1.000
    Si2552   Si       0.45635    0.46702    0.61935    1.000
    N2553    N        0.43436    0.29868    0.66185    1.000
    Si2554   Si       0.42004    0.33249    0.64112    1.000
    N2555    N        0.45369    0.35591    0.62795    1.000
    Si2556   Si       0.45021    0.26584    0.74260    1.000
    Si2557   Si       0.40045    0.27680    0.68059    1.000
    Si2558   Si       0.42898    0.49486    0.68651    1.000
    Si2559   Si       0.42840    0.44164    0.73125    1.000
    N2560    N        0.43113    0.48493    0.72808    1.000
    Si2561   Si       0.43173    0.30394    0.80532    1.000
    N2562    N        0.43346    0.30001    0.76229    1.000
    N2563    N        0.42445    0.26616    0.82238    1.000
    Si2564   Si       0.42244    0.37751    0.77879    1.000
    N2565    N        0.42085    0.38733    0.82193    1.000
    Si2566   Si       0.42476    0.42998    0.81024    1.000
    N2567    N        0.42310    0.42317    0.76858    1.000
    Si2568   Si       0.44481    0.48730    0.83325    1.000
    N2569    N        0.42236    0.50723    0.80140    1.000
    N2570    N        0.40380    0.32425    0.93722    1.000
    N2571    N        0.44427    0.27645    0.95614    1.000
    N2572    N        0.42401    0.27567    0.89215    1.000
    Si2573   Si       0.42743    0.31765    0.89841    1.000
    Si2574   Si       0.41674    0.30618    0.97197    1.000
    Si2575   Si       0.39622    0.37709    0.96901    1.000
    N2576    N        0.40183    0.34443    0.87769    1.000
    N2577    N        0.41786    0.34744    0.99349    1.000
    N2578    N        0.44790    0.47375    0.94179    1.000
    Si2579   Si       0.41534    0.45676    0.96728    1.000
    Si2580   Si       0.43414    0.50194    0.91112    1.000
    N2581    N        0.42295    0.41350    0.97485    1.000
    N2582    N        0.42753    0.48198    0.87272    1.000
    N2583    N        0.43200    0.56530    0.09245    1.000
    Si2584   Si       0.44233    0.52334    0.09464    1.000
    Si2585   Si       0.44931    0.55551    0.01303    1.000
    N2586    N        0.41260    0.54376    0.03403    1.000
    N2587    N        0.44388    0.62212    0.11585    1.000
    Si2588   Si       0.45015    0.63548    0.00943    1.000
    Si2589   Si       0.42418    0.63784    0.07967    1.000
    Si2590   Si       0.43102    0.69426    0.04891    1.000
    N2591    N        0.42048    0.73605    0.05342    1.000
    N2592    N        0.44920    0.65279    0.04818    1.000
    Si2593   Si       0.41082    0.74880    0.01322    1.000
    N2594    N        0.42430    0.69616    0.00522    1.000
    N2595    N        0.40927    0.67884    0.08500    1.000
    Si2596   Si       0.41757    0.75164    0.09262    1.000
    N2597    N        0.45026    0.59882    0.23042    1.000
    Si2598   Si       0.41409    0.59996    0.20699    1.000
    N2599    N        0.41994    0.57348    0.17115    1.000
    Si2600   Si       0.41192    0.60775    0.14502    1.000
    N2601    N        0.43131    0.51540    0.13728    1.000
    Si2602   Si       0.45133    0.54610    0.16417    1.000
    N2603    N        0.41307    0.63434    0.18179    1.000
    N2604    N        0.43826    0.73740    0.12678    1.000
    Si2605   Si       0.41887    0.72953    0.16768    1.000
    N2606    N        0.42923    0.70268    0.20641    1.000
    Si2607   Si       0.40077    0.67335    0.19289    1.000
    N2608    N        0.44061    0.58236    0.33061    1.000
    N2609    N        0.42454    0.52150    0.35158    1.000
    Si2610   Si       0.45536    0.62901    0.26178    1.000
    Si2611   Si       0.40659    0.59987    0.30727    1.000
    N2612    N        0.41483    0.63193    0.27963    1.000
    Si2613   Si       0.44383    0.55616    0.36844    1.000
    Si2614   Si       0.41232    0.71005    0.31548    1.000
    N2615    N        0.44803    0.73314    0.31719    1.000
    N2616    N        0.41207    0.69785    0.27215    1.000
    Si2617   Si       0.44775    0.70282    0.24536    1.000
    Si2618   Si       0.42578    0.54786    0.44389    1.000
    Si2619   Si       0.41936    0.60919    0.41073    1.000
    N2620    N        0.43004    0.60867    0.45520    1.000
    N2621    N        0.42051    0.56733    0.40451    1.000
    N2622    N        0.40451    0.55342    0.48050    1.000
    N2623    N        0.44634    0.63301    0.38584    1.000
    Si2624   Si       0.40352    0.59750    0.48811    1.000
    N2625    N        0.45907    0.69575    0.37843    1.000
    N2626    N        0.43335    0.72577    0.44979    1.000
    Si2627   Si       0.41860    0.67229    0.37999    1.000
    Si2628   Si       0.41593    0.74182    0.41281    1.000
    Si2629   Si       0.40084    0.71748    0.47792    1.000
    Si2630   Si       0.43125    0.60107    0.56197    1.000
    Si2631   Si       0.41079    0.53633    0.58703    1.000
    N2632    N        0.41494    0.61756    0.52628    1.000
    N2633    N        0.45038    0.54309    0.60527    1.000
    N2634    N        0.45011    0.63105    0.58951    1.000
    N2635    N        0.40659    0.51584    0.54889    1.000
    N2636    N        0.43768    0.68260    0.54545    1.000
    Si2637   Si       0.43554    0.73569    0.59301    1.000
    N2638    N        0.41279    0.74010    0.51218    1.000
    Si2639   Si       0.44949    0.72198    0.52544    1.000
    N2640    N        0.44589    0.69818    0.61399    1.000
    Si2641   Si       0.40354    0.66036    0.52954    1.000
    N2642    N        0.45804    0.74753    0.55723    1.000
    Si2643   Si       0.45053    0.56049    0.64627    1.000
    Si2644   Si       0.43202    0.57214    0.71424    1.000
    N2645    N        0.42249    0.59376    0.64472    1.000
    N2646    N        0.43762    0.54000    0.68211    1.000
    Si2647   Si       0.45455    0.63547    0.74533    1.000
    Si2648   Si       0.40966    0.74135    0.67918    1.000
    Si2649   Si       0.43231    0.63334    0.62951    1.000
    N2650    N        0.44685    0.71861    0.68220    1.000
    N2651    N        0.43540    0.67127    0.73161    1.000
    N2652    N        0.43379    0.62194    0.78007    1.000
    Si2653   Si       0.42638    0.57912    0.78601    1.000
    N2654    N        0.43635    0.55462    0.75268    1.000
    N2655    N        0.45668    0.56958    0.81442    1.000
    Si2656   Si       0.44031    0.51191    0.76034    1.000
    N2657    N        0.44967    0.63396    0.85028    1.000
    N2658    N        0.43576    0.74163    0.82297    1.000
    Si2659   Si       0.43953    0.65195    0.81316    1.000
    Si2660   Si       0.44263    0.74132    0.86659    1.000
    N2661    N        0.43783    0.55231    0.97255    1.000
    Si2662   Si       0.41691    0.61147    0.94873    1.000
    N2663    N        0.45924    0.60417    0.93504    1.000
    N2664    N        0.41057    0.63211    0.98840    1.000
    N2665    N        0.42551    0.70207    0.87920    1.000
    N2666    N        0.44732    0.75117    0.98767    1.000
    N2667    N        0.40871    0.64049    0.91474    1.000
    Si2668   Si       0.43697    0.65862    0.88561    1.000
    Si2669   Si       0.46182    0.70963    0.98460    1.000
    N2670    N        0.43941    0.79267    0.08831    1.000
    N2671    N        0.42701    0.85992    0.04284    1.000
    N2672    N        0.41404    0.79363    0.01830    1.000
    Si2673   Si       0.41654    0.81736    0.11472    1.000
    Si2674   Si       0.45608    0.78996    0.00190    1.000
    N2675    N        0.40345    0.85851    0.11052    1.000
    N2676    N        0.44340    0.91327    0.08610    1.000
    N2677    N        0.42520    0.98213    0.10153    1.000
    N2678    N        0.42319    0.98614    0.02108    1.000
    N2679    N        0.44117    0.92230    0.02094    1.000
    Si2680   Si       0.45207    0.89286    0.05057    1.000
    Si2681   Si       0.43699    0.99963    0.06189    1.000
    Si2682   Si       0.41182    0.94055    0.09951    1.000
    Si2683   Si       0.40786    0.94543    0.02465    1.000
    Si2684   Si       0.43390    0.88553    0.11981    1.000
    N2685    N        0.44116    0.76287    0.18893    1.000
    Si2686   Si       0.44430    0.84909    0.17911    1.000
    N2687    N        0.42576    0.81679    0.15632    1.000
    N2688    N        0.40849    0.87555    0.19277    1.000
    Si2689   Si       0.40648    0.79082    0.18447    1.000
    Si2690   Si       0.44068    0.99539    0.14008    1.000
    N2691    N        0.40456    0.94375    0.20841    1.000
    Si2692   Si       0.43539    0.97229    0.19841    1.000
    N2693    N        0.41016    0.91846    0.13746    1.000
    N2694    N        0.45877    0.96174    0.16338    1.000
    N2695    N        0.41679    0.00933    0.17374    1.000
    N2696    N        0.43724    0.86878    0.32982    1.000
    Si2697   Si       0.42265    0.81463    0.25948    1.000
    N2698    N        0.41372    0.77718    0.28058    1.000
    Si2699   Si       0.41848    0.86709    0.36982    1.000
    N2700    N        0.40650    0.85574    0.26256    1.000
    Si2701   Si       0.45969    0.76703    0.28686    1.000
    Si2702   Si       0.41454    0.88074    0.29544    1.000
    N2703    N        0.42348    0.92055    0.27487    1.000
    N2704    N        0.41338    0.98856    0.34340    1.000
    Si2705   Si       0.45432    0.95480    0.27528    1.000
    N2706    N        0.39987    0.97884    0.27054    1.000
    N2707    N        0.45413    0.85134    0.38888    1.000
    N2708    N        0.43436    0.85212    0.45958    1.000
    Si2709   Si       0.43722    0.81319    0.48052    1.000
    N2710    N        0.44986    0.76886    0.40468    1.000
    N2711    N        0.40254    0.79166    0.46602    1.000
    N2712    N        0.40856    0.90991    0.37372    1.000
    Si2713   Si       0.40536    0.97156    0.44781    1.000
    N2714    N        0.42153    0.96825    0.40748    1.000
    N2715    N        0.43131    0.94576    0.47281    1.000
    Si2716   Si       0.44142    0.93331    0.38902    1.000
    N2717    N        0.46057    0.90965    0.42326    1.000
    N2718    N        0.43924    0.82840    0.52355    1.000
    N2719    N        0.42041    0.77211    0.61596    1.000
    Si2720   Si       0.42391    0.97072    0.55760    1.000
    N2721    N        0.43697    0.93070    0.53962    1.000
    N2722    N        0.44269    0.96645    0.59791    1.000
    Si2723   Si       0.41760    0.90433    0.56842    1.000
    N2724    N        0.43513    0.90004    0.61067    1.000
    Si2725   Si       0.40834    0.93837    0.50760    1.000
    N2726    N        0.44667    0.00474    0.54577    1.000
    Si2727   Si       0.40450    0.87391    0.71704    1.000
    N2728    N        0.40732    0.78493    0.68129    1.000
    Si2729   Si       0.42700    0.80299    0.64488    1.000
    N2730    N        0.40783    0.83936    0.63210    1.000
    N2731    N        0.43266    0.84027    0.71319    1.000
    Si2732   Si       0.42918    0.87695    0.64677    1.000
    Si2733   Si       0.44276    0.95576    0.72698    1.000
    Si2734   Si       0.42879    0.98331    0.63515    1.000
    N2735    N        0.45704    0.94773    0.65565    1.000
    N2736    N        0.39995    0.89075    0.67778    1.000
    Si2737   Si       0.44151    0.86215    0.79732    1.000
    Si2738   Si       0.41865    0.81068    0.84595    1.000
    N2739    N        0.45138    0.83409    0.82851    1.000
    N2740    N        0.40421    0.84941    0.78029    1.000
    N2741    N        0.42584    0.90273    0.80709    1.000
    N2742    N        0.42618    0.96362    0.76857    1.000
    Si2743   Si       0.44187    0.94295    0.80390    1.000
    N2744    N        0.44408    0.96398    0.84116    1.000
    Si2745   Si       0.44044    0.00651    0.84690    1.000
    Si2746   Si       0.43195    0.00804    0.77495    1.000
    N2747    N        0.41702    0.77738    0.87614    1.000
    Si2748   Si       0.42016    0.83413    0.95736    1.000
    N2749    N        0.42740    0.85960    0.92191    1.000
    Si2750   Si       0.41389    0.87463    0.88305    1.000
    N2751    N        0.45715    0.82689    0.97753    1.000
    N2752    N        0.45222    0.89827    0.87967    1.000
    Si2753   Si       0.44861    0.94309    0.87811    1.000
    Si2754   Si       0.44213    0.97395    0.93227    1.000
    N2755    N        0.43164    0.94414    0.96114    1.000
    N2756    N        0.41294    0.95986    0.90129    1.000
    N2757    N        0.49626    0.11602    0.03520    1.000
    Si2758   Si       0.50441    0.13109    0.07558    1.000
    N2759    N        0.47337    0.23642    0.02875    1.000
    Si2760   Si       0.50197    0.19792    0.11003    1.000
    Si2761   Si       0.51268    0.23820    0.01120    1.000
    N2762    N        0.46466    0.20912    0.09113    1.000
    N2763    N        0.46438    0.13677    0.08980    1.000
    Si2764   Si       0.46074    0.24667    0.07015    1.000
    N2765    N        0.47033    0.05326    0.19693    1.000
    Si2766   Si       0.49257    0.05585    0.23503    1.000
    N2767    N        0.47782    0.01816    0.13000    1.000
    N2768    N        0.47948    0.08898    0.13484    1.000
    Si2769   Si       0.46879    0.12530    0.23482    1.000
    Si2770   Si       0.48769    0.04992    0.15699    1.000
    N2771    N        0.46650    0.25813    0.16207    1.000
    N2772    N        0.49249    0.18374    0.15011    1.000
    N2773    N        0.48197    0.14948    0.20229    1.000
    N2774    N        0.48873    0.08345    0.32866    1.000
    Si2775   Si       0.49379    0.10718    0.29282    1.000
    N2776    N        0.47042    0.08663    0.25808    1.000
    N2777    N        0.50475    0.01631    0.24786    1.000
    N2778    N        0.47240    0.19344    0.32028    1.000
    N2779    N        0.49439    0.14465    0.26719    1.000
    N2780    N        0.47309    0.20163    0.25596    1.000
    Si2781   Si       0.51265    0.18261    0.25313    1.000
    Si2782   Si       0.46172    0.24281    0.25704    1.000
    Si2783   Si       0.51612    0.19558    0.32691    1.000
    N2784    N        0.46122    0.24337    0.36799    1.000
    Si2785   Si       0.45975    0.16940    0.28624    1.000
    N2786    N        0.46771    0.01976    0.37007    1.000
    Si2787   Si       0.47552    0.06649    0.44992    1.000
    N2788    N        0.49754    0.03171    0.43447    1.000
    N2789    N        0.49573    0.10238    0.45922    1.000
    Si2790   Si       0.50652    0.02261    0.39260    1.000
    N2791    N        0.46777    0.12780    0.37904    1.000
    N2792    N        0.50283    0.24188    0.43013    1.000
    Si2793   Si       0.50607    0.14715    0.38201    1.000
    Si2794   Si       0.49739    0.22850    0.38696    1.000
    N2795    N        0.47143    0.19849    0.47165    1.000
    Si2796   Si       0.50052    0.20032    0.44118    1.000
    N2797    N        0.49785    0.18556    0.40054    1.000
    N2798    N        0.48253    0.09677    0.56318    1.000
    N2799    N        0.50585    0.04902    0.61111    1.000
    Si2800   Si       0.51402    0.06561    0.57231    1.000
    N2801    N        0.51314    0.03417    0.54319    1.000
    Si2802   Si       0.48732    0.13472    0.54094    1.000
    Si2803   Si       0.49024    0.20890    0.55958    1.000
    N2804    N        0.48941    0.16754    0.57213    1.000
    N2805    N        0.49587    0.23173    0.59548    1.000
    Si2806   Si       0.47981    0.22962    0.50205    1.000
    Si2807   Si       0.49839    0.15473    0.61353    1.000
    N2808    N        0.51643    0.21502    0.52209    1.000
    Si2809   Si       0.51395    0.06978    0.69373    1.000
    Si2810   Si       0.46988    0.05009    0.63567    1.000
    N2811    N        0.48430    0.07986    0.66498    1.000
    N2812    N        0.48903    0.05004    0.72411    1.000
    N2813    N        0.46583    0.12707    0.62671    1.000
    N2814    N        0.50019    0.25189    0.65819    1.000
    Si2815   Si       0.47845    0.22265    0.63612    1.000
    Si2816   Si       0.49338    0.17136    0.68719    1.000
    N2817    N        0.47369    0.20588    0.70528    1.000
    N2818    N        0.46328    0.14171    0.69639    1.000
    N2819    N        0.49344    0.18404    0.64476    1.000
    Si2820   Si       0.46120    0.14275    0.73998    1.000
    N2821    N        0.50089    0.16372    0.74582    1.000
    N2822    N        0.47985    0.02802    0.84172    1.000
    Si2823   Si       0.50249    0.08415    0.76026    1.000
    Si2824   Si       0.50249    0.01733    0.80815    1.000
    N2825    N        0.46276    0.09822    0.86782    1.000
    N2826    N        0.46114    0.10019    0.75237    1.000
    Si2827   Si       0.50501    0.15775    0.78905    1.000
    N2828    N        0.50179    0.15750    0.85851    1.000
    Si2829   Si       0.46416    0.16974    0.84212    1.000
    N2830    N        0.46408    0.15567    0.80103    1.000
    N2831    N        0.46426    0.21384    0.84137    1.000
    Si2832   Si       0.48977    0.20799    0.74543    1.000
    Si2833   Si       0.48991    0.23208    0.87126    1.000
    N2834    N        0.46009    0.23195    0.76795    1.000
    Si2835   Si       0.45984    0.11654    0.93841    1.000
    Si2836   Si       0.46985    0.05522    0.87545    1.000
    Si2837   Si       0.50219    0.10279    0.99322    1.000
    N2838    N        0.49470    0.04389    0.91086    1.000
    N2839    N        0.46367    0.12234    0.98089    1.000
    Si2840   Si       0.47103    0.04844    0.94776    1.000
    N2841    N        0.49666    0.12089    0.91765    1.000
    Si2842   Si       0.50203    0.11827    0.87488    1.000
    N2843    N        0.50169    0.06070    0.97899    1.000
    N2844    N        0.50651    0.24668    0.96899    1.000
    Si2845   Si       0.49377    0.21444    0.94597    1.000
    N2846    N        0.47607    0.23109    0.90947    1.000
    N2847    N        0.45807    0.19753    0.96890    1.000
    N2848    N        0.47723    0.27748    0.09486    1.000
    N2849    N        0.50775    0.33533    0.05097    1.000
    N2850    N        0.47219    0.34619    0.11480    1.000
    Si2851   Si       0.46850    0.34099    0.02587    1.000
    N2852    N        0.48398    0.30971    0.99927    1.000
    N2853    N        0.47417    0.38226    0.01929    1.000
    Si2854   Si       0.48332    0.41064    0.05026    1.000
    N2855    N        0.48594    0.45063    0.03045    1.000
    N2856    N        0.51567    0.46191    0.10266    1.000
    Si2857   Si       0.51596    0.45650    0.99955    1.000
    Si2858   Si       0.51696    0.50614    0.10300    1.000
    Si2859   Si       0.50432    0.33387    0.21072    1.000
    Si2860   Si       0.50942    0.33865    0.13484    1.000
    N2861    N        0.50957    0.35712    0.17400    1.000
    Si2862   Si       0.49677    0.26586    0.13070    1.000
    N2863    N        0.49579    0.26571    0.23828    1.000
    Si2864   Si       0.47070    0.27227    0.20265    1.000
    N2865    N        0.46353    0.31599    0.20294    1.000
    N2866    N        0.52077    0.29787    0.14498    1.000
    N2867    N        0.48283    0.40858    0.21611    1.000
    N2868    N        0.47008    0.46737    0.17410    1.000
    Si2869   Si       0.47730    0.49586    0.20638    1.000
    Si2870   Si       0.49654    0.39919    0.17512    1.000
    Si2871   Si       0.50451    0.46312    0.14699    1.000
    N2872    N        0.46053    0.40226    0.15340    1.000
    N2873    N        0.49253    0.34088    0.31921    1.000
    Si2874   Si       0.48438    0.33588    0.36249    1.000
    N2875    N        0.49934    0.35125    0.25021    1.000
    Si2876   Si       0.47241    0.37906    0.32389    1.000
    N2877    N        0.48327    0.38048    0.36721    1.000
    Si2878   Si       0.47206    0.38776    0.25031    1.000
    N2879    N        0.47016    0.48555    0.31181    1.000
    N2880    N        0.48252    0.40170    0.28866    1.000
    Si2881   Si       0.51313    0.48494    0.31588    1.000
    Si2882   Si       0.48629    0.27865    0.44893    1.000
    N2883    N        0.47587    0.27115    0.49105    1.000
    N2884    N        0.51253    0.31135    0.45754    1.000
    N2885    N        0.51092    0.37853    0.42985    1.000
    Si2886   Si       0.50729    0.33240    0.49579    1.000
    N2887    N        0.51450    0.32128    0.38985    1.000
    N2888    N        0.46480    0.33940    0.49842    1.000
    N2889    N        0.47580    0.47654    0.48249    1.000
    N2890    N        0.47054    0.40955    0.49209    1.000
    Si2891   Si       0.51466    0.39924    0.38922    1.000
    Si2892   Si       0.47212    0.50403    0.44935    1.000
    Si2893   Si       0.50952    0.47731    0.38536    1.000
    Si2894   Si       0.50682    0.39826    0.46734    1.000
    N2895    N        0.50493    0.49738    0.42441    1.000
    N2896    N        0.46929    0.46673    0.37527    1.000
    Si2897   Si       0.51770    0.46465    0.49463    1.000
    N2898    N        0.49388    0.30526    0.59925    1.000
    Si2899   Si       0.47691    0.32662    0.56262    1.000
    N2900    N        0.51185    0.32481    0.53812    1.000
    N2901    N        0.46369    0.36674    0.55981    1.000
    Si2902   Si       0.51891    0.27036    0.59530    1.000
    N2903    N        0.51707    0.37121    0.61571    1.000
    Si2904   Si       0.48917    0.47278    0.55662    1.000
    N2905    N        0.49203    0.48253    0.59962    1.000
    N2906    N        0.46533    0.42212    0.60832    1.000
    N2907    N        0.48617    0.27655    0.71869    1.000
    Si2908   Si       0.47822    0.28527    0.67604    1.000
    N2909    N        0.49830    0.32185    0.67085    1.000
    N2910    N        0.50418    0.37316    0.71716    1.000
    Si2911   Si       0.49344    0.33775    0.62967    1.000
    N2912    N        0.51625    0.47416    0.70578    1.000
    N2913    N        0.45837    0.47276    0.66143    1.000
    N2914    N        0.46666    0.42853    0.71635    1.000
    N2915    N        0.50975    0.42166    0.66290    1.000
    Si2916   Si       0.48750    0.45029    0.68592    1.000
    Si2917   Si       0.50799    0.41435    0.62066    1.000
    Si2918   Si       0.48240    0.39869    0.74464    1.000
    Si2919   Si       0.49037    0.35872    0.80637    1.000
    Si2920   Si       0.49216    0.31410    0.85754    1.000
    N2921    N        0.50405    0.27244    0.85705    1.000
    N2922    N        0.46633    0.32348    0.82484    1.000
    N2923    N        0.46453    0.37141    0.77339    1.000
    N2924    N        0.50274    0.39038    0.83189    1.000
    Si2925   Si       0.49975    0.42935    0.81119    1.000
    N2926    N        0.50699    0.42538    0.76827    1.000
    N2927    N        0.46050    0.44727    0.82400    1.000
    N2928    N        0.48163    0.50804    0.77218    1.000
    Si2929   Si       0.49353    0.34574    0.92273    1.000
    Si2930   Si       0.48785    0.28685    0.96439    1.000
    N2931    N        0.46822    0.32755    0.89228    1.000
    N2932    N        0.47250    0.36678    0.95213    1.000
    N2933    N        0.51776    0.37865    0.90611    1.000
    N2934    N        0.49735    0.42805    0.96623    1.000
    Si2935   Si       0.48894    0.46515    0.93993    1.000
    Si2936   Si       0.46472    0.39809    0.97906    1.000
    N2937    N        0.51006    0.44899    0.90524    1.000
    N2938    N        0.48577    0.53284    0.08751    1.000
    N2939    N        0.50105    0.60183    0.08306    1.000
    Si2940   Si       0.50699    0.60498    0.03959    1.000
    N2941    N        0.47387    0.52179    0.02618    1.000
    Si2942   Si       0.50920    0.53424    0.04906    1.000
    Si2943   Si       0.46849    0.58713    0.10652    1.000
    N2944    N        0.46835    0.59645    0.01836    1.000
    Si2945   Si       0.51012    0.72240    0.05498    1.000
    N2946    N        0.49355    0.70506    0.01749    1.000
    N2947    N        0.48808    0.74955    0.08245    1.000
    Si2948   Si       0.51129    0.67191    0.99935    1.000
    N2949    N        0.48176    0.56813    0.14394    1.000
    Si2950   Si       0.47709    0.56375    0.23989    1.000
    N2951    N        0.46901    0.53887    0.20333    1.000
    Si2952   Si       0.48152    0.74444    0.12423    1.000
    N2953    N        0.50625    0.71462    0.14466    1.000
    N2954    N        0.50705    0.75382    0.20653    1.000
    Si2955   Si       0.47771    0.57695    0.30638    1.000
    N2956    N        0.48358    0.61890    0.29264    1.000
    N2957    N        0.51812    0.56022    0.31736    1.000
    N2958    N        0.46657    0.54534    0.27639    1.000
    N2959    N        0.47186    0.66837    0.25638    1.000
    N2960    N        0.50261    0.68603    0.32663    1.000
    Si2961   Si       0.50056    0.66004    0.28906    1.000
    Si2962   Si       0.47855    0.71743    0.34502    1.000
    N2963    N        0.49948    0.74909    0.36682    1.000
    N2964    N        0.47106    0.73824    0.25545    1.000
    Si2965   Si       0.51397    0.75538    0.25171    1.000
    Si2966   Si       0.46875    0.62495    0.46054    1.000
    N2967    N        0.46969    0.54696    0.45106    1.000
    N2968    N        0.50006    0.60734    0.43466    1.000
    Si2969   Si       0.49920    0.56384    0.42429    1.000
    N2970    N        0.48571    0.55966    0.38132    1.000
    N2971    N        0.51867    0.66075    0.39361    1.000
    N2972    N        0.46625    0.66607    0.44140    1.000
    Si2973   Si       0.47662    0.66306    0.40013    1.000
    N2974    N        0.50250    0.73111    0.44337    1.000
    Si2975   Si       0.47098    0.70572    0.45771    1.000
    Si2976   Si       0.48047    0.54348    0.57190    1.000
    Si2977   Si       0.49879    0.60049    0.53023    1.000
    N2978    N        0.46642    0.57754    0.54840    1.000
    N2979    N        0.49649    0.51465    0.54347    1.000
    N2980    N        0.48672    0.62792    0.49904    1.000
    N2981    N        0.50376    0.68560    0.58073    1.000
    Si2982   Si       0.51454    0.71903    0.60471    1.000
    Si2983   Si       0.46133    0.67177    0.58172    1.000
    N2984    N        0.47980    0.70332    0.50012    1.000
    Si2985   Si       0.50592    0.66831    0.50060    1.000
    N2986    N        0.45970    0.60569    0.71326    1.000
    N2987    N        0.48630    0.58233    0.65368    1.000
    Si2988   Si       0.48056    0.61772    0.67852    1.000
    N2989    N        0.46300    0.65012    0.65540    1.000
    N2990    N        0.50961    0.70320    0.64488    1.000
    N2991    N        0.50242    0.69473    0.71185    1.000
    Si2992   Si       0.46041    0.70558    0.72265    1.000
    Si2993   Si       0.46725    0.69291    0.65180    1.000
    Si2994   Si       0.47429    0.60004    0.84150    1.000
    Si2995   Si       0.48261    0.53539    0.80654    1.000
    N2996    N        0.50693    0.61567    0.81609    1.000
    N2997    N        0.47756    0.51522    0.84284    1.000
    N2998    N        0.50124    0.57548    0.86725    1.000
    N2999    N        0.50938    0.74685    0.81151    1.000
    N3000    N        0.49562    0.64320    0.75678    1.000
    Si3001   Si       0.50581    0.65515    0.79743    1.000
    N3002    N        0.47134    0.68222    0.80411    1.000
    Si3003   Si       0.47109    0.72508    0.79892    1.000
    N3004    N        0.46217    0.73276    0.75679    1.000
    Si3005   Si       0.51634    0.75650    0.85425    1.000
    N3006    N        0.46465    0.53375    0.91298    1.000
    Si3007   Si       0.49275    0.53405    0.87784    1.000
    N3008    N        0.51214    0.56434    0.95907    1.000
    Si3009   Si       0.47074    0.56235    0.94557    1.000
    N3010    N        0.48670    0.71471    0.95070    1.000
    Si3011   Si       0.49514    0.70713    0.90696    1.000
    N3012    N        0.47373    0.66698    0.90580    1.000
    Si3013   Si       0.48142    0.64101    0.94100    1.000
    N3014    N        0.48478    0.73763    0.87879    1.000
    N3015    N        0.47517    0.65577    0.98049    1.000
    Si3016   Si       0.47982    0.79106    0.07177    1.000
    N3017    N        0.48865    0.79416    0.02937    1.000
    N3018    N        0.50775    0.82244    0.08704    1.000
    N3019    N        0.48892    0.87414    0.03483    1.000
    Si3020   Si       0.51540    0.85924    0.06584    1.000
    Si3021   Si       0.50476    0.97191    0.02664    1.000
    N3022    N        0.48069    0.98619    0.06055    1.000
    Si3023   Si       0.49922    0.99854    0.09618    1.000
    N3024    N        0.51010    0.89173    0.09453    1.000
    N3025    N        0.51138    0.96097    0.11186    1.000
    N3026    N        0.47276    0.82391    0.20288    1.000
    Si3027   Si       0.48090    0.78294    0.18824    1.000
    N3028    N        0.49485    0.78106    0.14477    1.000
    Si3029   Si       0.49379    0.82621    0.24252    1.000
    Si3030   Si       0.50545    0.88148    0.13637    1.000
    N3031    N        0.46282    0.87162    0.14795    1.000
    Si3032   Si       0.49819    0.95532    0.15183    1.000
    N3033    N        0.46168    0.96922    0.23479    1.000
    N3034    N        0.51196    0.91605    0.16305    1.000
    Si3035   Si       0.50301    0.97938    0.22437    1.000
    N3036    N        0.52264    0.93846    0.23001    1.000
    N3037    N        0.48701    0.81194    0.34453    1.000
    Si3038   Si       0.47358    0.85236    0.34643    1.000
    N3039    N        0.50690    0.76561    0.29565    1.000
    N3040    N        0.50192    0.88103    0.33394    1.000
    N3041    N        0.46401    0.80808    0.26795    1.000
    N3042    N        0.49713    0.86718    0.25430    1.000
    Si3043   Si       0.45610    0.98770    0.34475    1.000
    N3044    N        0.46607    0.94535    0.35545    1.000
    N3045    N        0.47265    0.98693    0.30376    1.000
    Si3046   Si       0.50962    0.90689    0.25813    1.000
    N3047    N        0.48571    0.92745    0.28792    1.000
    Si3048   Si       0.49511    0.92517    0.33060    1.000
    Si3049   Si       0.51040    0.00313    0.28849    1.000
    Si3050   Si       0.47683    0.78670    0.37827    1.000
    N3051    N        0.47230    0.78798    0.47653    1.000
    N3052    N        0.50305    0.79717    0.41283    1.000
    N3053    N        0.50478    0.86471    0.44192    1.000
    Si3054   Si       0.47908    0.76783    0.43863    1.000
    Si3055   Si       0.51270    0.87473    0.48451    1.000
    Si3056   Si       0.46300    0.86569    0.42836    1.000
    N3057    N        0.49971    0.95828    0.44730    1.000
    N3058    N        0.47412    0.00449    0.49174    1.000
    Si3059   Si       0.50378    0.99783    0.46250    1.000
    Si3060   Si       0.46880    0.92907    0.45922    1.000
    N3061    N        0.48616    0.90799    0.49135    1.000
    N3062    N        0.49041    0.81675    0.57503    1.000
    Si3063   Si       0.47584    0.84249    0.54199    1.000
    Si3064   Si       0.48991    0.77480    0.56711    1.000
    N3065    N        0.50543    0.83837    0.50883    1.000
    Si3066   Si       0.50924    0.79638    0.50075    1.000
    N3067    N        0.51718    0.77235    0.53527    1.000
    N3068    N        0.49207    0.75747    0.60831    1.000
    N3069    N        0.48120    0.88386    0.55635    1.000
    Si3070   Si       0.47877    0.92151    0.53178    1.000
    N3071    N        0.50235    0.95860    0.53812    1.000
    N3072    N        0.50456    0.92678    0.60714    1.000
    Si3073   Si       0.48811    0.99913    0.53436    1.000
    Si3074   Si       0.46383    0.93256    0.61399    1.000
    Si3075   Si       0.51577    0.89404    0.58113    1.000
    N3076    N        0.46801    0.80865    0.65612    1.000
    Si3077   Si       0.47026    0.83867    0.68973    1.000
    Si3078   Si       0.49781    0.77966    0.64641    1.000
    N3079    N        0.50449    0.82730    0.71339    1.000
    N3080    N        0.46582    0.87501    0.66972    1.000
    N3081    N        0.50855    0.75869    0.68303    1.000
    Si3082   Si       0.48863    0.97938    0.66766    1.000
    N3083    N        0.45890    0.91639    0.72379    1.000
    Si3084   Si       0.47485    0.91706    0.68244    1.000
    N3085    N        0.47138    0.98249    0.71060    1.000
    N3086    N        0.52427    0.99053    0.64334    1.000
    Si3087   Si       0.49405    0.00941    0.73653    1.000
    Si3088   Si       0.49564    0.82767    0.82425    1.000
    N3089    N        0.47545    0.86736    0.77103    1.000
    Si3090   Si       0.50774    0.84133    0.75468    1.000
    N3091    N        0.50030    0.80947    0.78586    1.000
    N3092    N        0.50536    0.79931    0.85708    1.000
    N3093    N        0.51592    0.86207    0.83923    1.000
    N3094    N        0.48306    0.93277    0.79256    1.000
    Si3095   Si       0.48543    0.90724    0.75809    1.000
    N3096    N        0.50596    0.93134    0.85664    1.000
    Si3097   Si       0.49338    0.88971    0.86488    1.000
    N3098    N        0.47446    0.00738    0.77554    1.000
    N3099    N        0.50189    0.86655    0.90326    1.000
    Si3100   Si       0.46445    0.88056    0.92272    1.000
    Si3101   Si       0.48347    0.85830    0.99320    1.000
    Si3102   Si       0.46383    0.92614    0.98314    1.000
    Si3103   Si       0.51426    0.95322    0.89320    1.000
    N3104    N        0.49726    0.95287    0.98828    1.000
    N3105    N        0.47490    0.96278    0.90728    1.000
    N3106    N        0.47695    0.88961    0.96370    1.000
    Si3107   Si       0.55608    0.02017    0.04927    1.000
    N3108    N        0.53491    0.02130    0.08833    1.000
    N3109    N        0.53464    0.10825    0.09537    1.000
    Si3110   Si       0.56811    0.08844    0.07648    1.000
    N3111    N        0.56706    0.06185    0.04270    1.000
    N3112    N        0.52978    0.00764    0.01811    1.000
    N3113    N        0.57061    0.15762    0.03250    1.000
    Si3114   Si       0.54919    0.18918    0.05382    1.000
    Si3115   Si       0.56678    0.22573    0.11140    1.000
    N3116    N        0.52883    0.19844    0.01488    1.000
    N3117    N        0.56924    0.22385    0.06870    1.000
    Si3118   Si       0.57422    0.25731    0.04162    1.000
    N3119    N        0.52111    0.17250    0.08061    1.000
    Si3120   Si       0.55478    0.03638    0.12335    1.000
    N3121    N        0.53218    0.07365    0.23204    1.000
    Si3122   Si       0.52075    0.10403    0.13760    1.000
    N3123    N        0.56558    0.02025    0.20385    1.000
    N3124    N        0.53006    0.06007    0.15581    1.000
    Si3125   Si       0.55100    0.06111    0.19384    1.000
    N3126    N        0.53770    0.13515    0.16029    1.000
    N3127    N        0.52447    0.23478    0.11667    1.000
    N3128    N        0.53541    0.18840    0.21639    1.000
    Si3129   Si       0.51800    0.16537    0.18283    1.000
    N3130    N        0.57406    0.19362    0.13962    1.000
    N3131    N        0.54084    0.09905    0.29875    1.000
    Si3132   Si       0.56103    0.07631    0.26477    1.000
    N3133    N        0.53187    0.03103    0.31295    1.000
    Si3134   Si       0.52839    0.06853    0.33687    1.000
    Si3135   Si       0.55885    0.13026    0.32631    1.000
    Si3136   Si       0.57000    0.00910    0.30200    1.000
    N3137    N        0.57554    0.09834    0.35504    1.000
    N3138    N        0.52888    0.22387    0.35860    1.000
    N3139    N        0.53229    0.20224    0.28777    1.000
    Si3140   Si       0.56844    0.22608    0.28265    1.000
    Si3141   Si       0.57027    0.23839    0.35996    1.000
    N3142    N        0.52358    0.15278    0.34338    1.000
    N3143    N        0.57162    0.26044    0.25317    1.000
    N3144    N        0.53815    0.05040    0.37654    1.000
    N3145    N        0.53972    0.12693    0.40392    1.000
    N3146    N        0.56676    0.12402    0.46789    1.000
    Si3147   Si       0.52878    0.10999    0.48657    1.000
    Si3148   Si       0.55809    0.08739    0.39511    1.000
    Si3149   Si       0.56568    0.01159    0.37600    1.000
    Si3150   Si       0.55726    0.15245    0.43417    1.000
    N3151    N        0.53460    0.18133    0.45701    1.000
    N3152    N        0.55321    0.08525    0.57220    1.000
    Si3153   Si       0.54821    0.03502    0.51501    1.000
    Si3154   Si       0.56704    0.12225    0.58903    1.000
    N3155    N        0.57255    0.03065    0.60559    1.000
    N3156    N        0.54975    0.07197    0.49412    1.000
    Si3157   Si       0.55541    0.23765    0.53662    1.000
    Si3158   Si       0.53597    0.17954    0.50080    1.000
    N3159    N        0.54034    0.14450    0.61656    1.000
    N3160    N        0.57811    0.19104    0.50953    1.000
    N3161    N        0.51890    0.14206    0.51393    1.000
    N3162    N        0.57779    0.21929    0.57190    1.000
    Si3163   Si       0.53838    0.03095    0.63385    1.000
    N3164    N        0.54688    0.05041    0.67358    1.000
    N3165    N        0.52332    0.09988    0.72350    1.000
    Si3166   Si       0.55510    0.16958    0.65035    1.000
    N3167    N        0.53492    0.15940    0.68916    1.000
    N3168    N        0.55510    0.21148    0.63917    1.000
    Si3169   Si       0.53811    0.13923    0.72869    1.000
    N3170    N        0.55621    0.25664    0.69706    1.000
    Si3171   Si       0.54271    0.24700    0.65853    1.000
    Si3172   Si       0.54030    0.08694    0.81291    1.000
    N3173    N        0.53464    0.09958    0.85463    1.000
    N3174    N        0.57454    0.03412    0.83522    1.000
    Si3175   Si       0.57087    0.11952    0.87114    1.000
    N3176    N        0.51797    0.05389    0.79082    1.000
    N3177    N        0.51823    0.11700    0.78853    1.000
    Si3178   Si       0.55755    0.22116    0.78176    1.000
    Si3179   Si       0.53529    0.18246    0.84567    1.000
    N3180    N        0.52960    0.19071    0.80284    1.000
    N3181    N        0.56063    0.25191    0.81487    1.000
    N3182    N        0.57162    0.15776    0.84493    1.000
    N3183    N        0.52597    0.23164    0.75097    1.000
    Si3184   Si       0.54433    0.25615    0.85413    1.000
    N3185    N        0.53074    0.21724    0.86761    1.000
    N3186    N        0.57092    0.03510    0.90592    1.000
    Si3187   Si       0.53408    0.03230    0.98101    1.000
    Si3188   Si       0.53109    0.02070    0.91425    1.000
    N3189    N        0.57266    0.05167    0.97557    1.000
    N3190    N        0.53161    0.13158    0.97808    1.000
    Si3191   Si       0.57474    0.00874    0.87274    1.000
    Si3192   Si       0.52810    0.14191    0.93568    1.000
    N3193    N        0.56366    0.13950    0.91163    1.000
    N3194    N        0.52536    0.18687    0.93632    1.000
    Si3195   Si       0.55008    0.16561    0.99482    1.000
    Si3196   Si       0.56708    0.18356    0.92572    1.000
    N3197    N        0.53726    0.27195    0.02575    1.000
    Si3198   Si       0.53641    0.36358    0.06901    1.000
    N3199    N        0.54068    0.35733    0.11165    1.000
    Si3200   Si       0.52761    0.31296    0.01675    1.000
    N3201    N        0.57237    0.35048    0.04746    1.000
    N3202    N        0.55014    0.45701    0.02622    1.000
    Si3203   Si       0.54080    0.44577    0.07010    1.000
    N3204    N        0.52519    0.40505    0.06210    1.000
    N3205    N        0.54063    0.31106    0.21434    1.000
    N3206    N        0.57592    0.47715    0.16363    1.000
    N3207    N        0.52242    0.49052    0.21378    1.000
    N3208    N        0.52467    0.42927    0.16252    1.000
    Si3209   Si       0.54556    0.50491    0.18107    1.000
    Si3210   Si       0.56798    0.43393    0.16086    1.000
    N3211    N        0.51724    0.50493    0.14592    1.000
    N3212    N        0.53883    0.30622    0.28112    1.000
    N3213    N        0.56967    0.32359    0.34124    1.000
    N3214    N        0.54819    0.37774    0.29310    1.000
    Si3215   Si       0.52089    0.34462    0.28764    1.000
    Si3216   Si       0.57383    0.29430    0.30740    1.000
    Si3217   Si       0.53432    0.28318    0.24411    1.000
    Si3218   Si       0.54416    0.47952    0.24890    1.000
    N3219    N        0.55403    0.38798    0.36371    1.000
    Si3220   Si       0.55422    0.43025    0.35336    1.000
    N3221    N        0.53808    0.43770    0.25843    1.000
    N3222    N        0.52448    0.44247    0.32488    1.000
    N3223    N        0.53201    0.50473    0.28280    1.000
    Si3224   Si       0.52311    0.41439    0.29095    1.000
    N3225    N        0.52366    0.50525    0.35353    1.000
    N3226    N        0.57437    0.26965    0.38896    1.000
    N3227    N        0.56982    0.33839    0.41189    1.000
    Si3228   Si       0.52700    0.33844    0.42726    1.000
    Si3229   Si       0.55567    0.30990    0.38113    1.000
    N3230    N        0.52900    0.37035    0.49339    1.000
    N3231    N        0.52803    0.43490    0.46497    1.000
    N3232    N        0.53427    0.50488    0.48715    1.000
    N3233    N        0.57226    0.48102    0.42899    1.000
    N3234    N        0.53205    0.44069    0.38975    1.000
    Si3235   Si       0.55256    0.44289    0.42963    1.000
    Si3236   Si       0.55118    0.31056    0.54948    1.000
    N3237    N        0.53782    0.27042    0.55689    1.000
    Si3238   Si       0.55720    0.36796    0.59449    1.000
    N3239    N        0.56671    0.32538    0.58794    1.000
    Si3240   Si       0.56667    0.36831    0.51477    1.000
    N3241    N        0.57627    0.32567    0.51584    1.000
    N3242    N        0.56097    0.38474    0.55513    1.000
    Si3243   Si       0.55207    0.42988    0.55656    1.000
    N3244    N        0.53982    0.43081    0.59810    1.000
    N3245    N        0.56937    0.49806    0.61130    1.000
    N3246    N        0.52018    0.45159    0.53507    1.000
    Si3247   Si       0.52722    0.50763    0.61238    1.000
    N3248    N        0.55276    0.27169    0.62205    1.000
    Si3249   Si       0.53075    0.26835    0.72985    1.000
    N3250    N        0.53978    0.31155    0.73418    1.000
    Si3251   Si       0.52229    0.33401    0.70401    1.000
    N3252    N        0.55293    0.35874    0.68189    1.000
    Si3253   Si       0.53203    0.39567    0.69359    1.000
    N3254    N        0.55802    0.42188    0.71812    1.000
    Si3255   Si       0.53262    0.45174    0.73881    1.000
    Si3256   Si       0.56055    0.33506    0.76504    1.000
    N3257    N        0.53217    0.33223    0.85759    1.000
    N3258    N        0.52715    0.34349    0.79060    1.000
    Si3259   Si       0.52933    0.37470    0.86318    1.000
    N3260    N        0.57098    0.38478    0.86717    1.000
    N3261    N        0.54903    0.48202    0.76622    1.000
    Si3262   Si       0.56197    0.46613    0.80725    1.000
    N3263    N        0.52325    0.46048    0.83168    1.000
    Si3264   Si       0.57243    0.32024    0.87166    1.000
    Si3265   Si       0.55714    0.31229    0.94498    1.000
    N3266    N        0.57009    0.27742    0.88075    1.000
    N3267    N        0.55311    0.32881    0.98720    1.000
    N3268    N        0.57140    0.33895    0.91321    1.000
    N3269    N        0.51424    0.30837    0.93617    1.000
    N3270    N        0.52142    0.48452    0.96623    1.000
    Si3271   Si       0.53133    0.46968    0.87245    1.000
    N3272    N        0.55988    0.40384    0.94635    1.000
    Si3273   Si       0.56657    0.49158    0.96466    1.000
    Si3274   Si       0.51985    0.41555    0.93038    1.000
    N3275    N        0.57515    0.46542    0.87031    1.000
    Si3276   Si       0.53355    0.61512    0.10541    1.000
    N3277    N        0.52561    0.56813    0.02814    1.000
    N3278    N        0.54181    0.51554    0.07022    1.000
    N3279    N        0.56781    0.63183    0.08226    1.000
    N3280    N        0.52532    0.68805    0.07721    1.000
    Si3281   Si       0.55459    0.66435    0.05545    1.000
    N3282    N        0.54287    0.74560    0.04111    1.000
    N3283    N        0.52636    0.64338    0.02805    1.000
    Si3284   Si       0.53083    0.68831    0.12084    1.000
    N3285    N        0.55122    0.57915    0.12736    1.000
    N3286    N        0.54914    0.54798    0.18575    1.000
    Si3287   Si       0.54571    0.57818    0.21654    1.000
    N3288    N        0.52305    0.60500    0.18940    1.000
    Si3289   Si       0.52217    0.57123    0.15856    1.000
    N3290    N        0.51992    0.56705    0.24808    1.000
    Si3291   Si       0.52616    0.72309    0.18370    1.000
    N3292    N        0.53210    0.68291    0.20176    1.000
    N3293    N        0.57445    0.69900    0.12429    1.000
    Si3294   Si       0.55224    0.68638    0.24050    1.000
    Si3295   Si       0.53858    0.64600    0.17770    1.000
    N3296    N        0.52462    0.64716    0.13407    1.000
    N3297    N        0.56520    0.73774    0.17298    1.000
    Si3298   Si       0.53901    0.54804    0.28098    1.000
    Si3299   Si       0.52332    0.54907    0.35960    1.000
    Si3300   Si       0.57344    0.60333    0.34424    1.000
    N3301    N        0.55416    0.57683    0.37181    1.000
    N3302    N        0.57368    0.59752    0.30077    1.000
    Si3303   Si       0.56952    0.63963    0.29575    1.000
    N3304    N        0.55725    0.64433    0.33831    1.000
    Si3305   Si       0.53399    0.67533    0.35675    1.000
    N3306    N        0.53956    0.65957    0.27271    1.000
    N3307    N        0.54934    0.72909    0.25315    1.000
    N3308    N        0.55583    0.71178    0.36667    1.000
    Si3309   Si       0.55723    0.51469    0.45101    1.000
    N3310    N        0.54123    0.55384    0.43326    1.000
    N3311    N        0.56757    0.62369    0.43034    1.000
    Si3312   Si       0.56735    0.58075    0.41215    1.000
    Si3313   Si       0.54179    0.75206    0.37201    1.000
    N3314    N        0.55780    0.72287    0.48865    1.000
    Si3315   Si       0.53974    0.70987    0.45042    1.000
    Si3316   Si       0.52819    0.63744    0.43035    1.000
    N3317    N        0.52733    0.66819    0.46279    1.000
    N3318    N        0.57537    0.69642    0.42911    1.000
    Si3319   Si       0.54060    0.57876    0.56864    1.000
    Si3320   Si       0.53532    0.52679    0.52379    1.000
    N3321    N        0.53219    0.57006    0.52635    1.000
    N3322    N        0.51786    0.55151    0.59430    1.000
    N3323    N        0.57601    0.51782    0.53975    1.000
    N3324    N        0.52064    0.61689    0.56710    1.000
    N3325    N        0.55175    0.73632    0.58645    1.000
    Si3326   Si       0.53511    0.65829    0.56758    1.000
    N3327    N        0.53936    0.66908    0.52670    1.000
    N3328    N        0.57173    0.66338    0.58687    1.000
    Si3329   Si       0.57489    0.68911    0.51048    1.000
    Si3330   Si       0.56531    0.56345    0.73641    1.000
    Si3331   Si       0.56075    0.61634    0.67860    1.000
    N3332    N        0.55485    0.59155    0.64241    1.000
    N3333    N        0.53210    0.53855    0.72790    1.000
    Si3334   Si       0.52138    0.56576    0.63640    1.000
    N3335    N        0.52159    0.62866    0.69443    1.000
    N3336    N        0.52495    0.52594    0.65268    1.000
    Si3337   Si       0.53417    0.51301    0.69291    1.000
    Si3338   Si       0.52495    0.71846    0.68353    1.000
    N3339    N        0.56596    0.71926    0.69950    1.000
    Si3340   Si       0.51964    0.65838    0.72551    1.000
    N3341    N        0.56278    0.66112    0.74042    1.000
    Si3342   Si       0.53805    0.58502    0.80485    1.000
    N3343    N        0.56764    0.58077    0.83591    1.000
    N3344    N        0.56346    0.59261    0.76889    1.000
    Si3345   Si       0.52395    0.51690    0.76502    1.000
    N3346    N        0.52112    0.54662    0.79641    1.000
    Si3347   Si       0.54010    0.59291    0.86935    1.000
    N3348    N        0.54573    0.66779    0.80660    1.000
    Si3349   Si       0.55385    0.67350    0.85023    1.000
    N3350    N        0.55836    0.74911    0.86341    1.000
    N3351    N        0.55237    0.63518    0.87218    1.000
    N3352    N        0.55338    0.57525    0.90660    1.000
    Si3353   Si       0.53813    0.59405    0.94130    1.000
    N3354    N        0.56518    0.59335    0.97393    1.000
    Si3355   Si       0.56366    0.53327    0.89797    1.000
    Si3356   Si       0.54205    0.55933    0.98990    1.000
    N3357    N        0.57273    0.52880    0.98891    1.000
    N3358    N        0.52871    0.51193    0.88501    1.000
    N3359    N        0.52466    0.63434    0.93631    1.000
    N3360    N        0.54457    0.69234    0.97848    1.000
    Si3361   Si       0.56357    0.72181    0.89741    1.000
    N3362    N        0.53315    0.69249    0.88580    1.000
    N3363    N        0.54127    0.74180    0.92831    1.000
    Si3364   Si       0.54808    0.65644    0.90873    1.000
    Si3365   Si       0.52302    0.72856    0.96768    1.000
    Si3366   Si       0.53143    0.78250    0.02241    1.000
    N3367    N        0.55572    0.86625    0.05365    1.000
    Si3368   Si       0.55966    0.85161    0.01240    1.000
    N3369    N        0.56707    0.80922    0.01868    1.000
    N3370    N        0.53283    0.94335    0.04512    1.000
    Si3371   Si       0.52951    0.93051    0.08850    1.000
    N3372    N        0.56900    0.91826    0.10271    1.000
    Si3373   Si       0.57227    0.95121    0.02919    1.000
    N3374    N        0.56208    0.78886    0.12703    1.000
    Si3375   Si       0.56507    0.85934    0.17449    1.000
    N3376    N        0.53144    0.84849    0.14895    1.000
    Si3377   Si       0.52371    0.81014    0.12706    1.000
    N3378    N        0.53023    0.80075    0.24541    1.000
    N3379    N        0.51954    0.98046    0.18191    1.000
    N3380    N        0.55431    0.88406    0.20623    1.000
    Si3381   Si       0.56138    0.98713    0.17435    1.000
    Si3382   Si       0.54144    0.92371    0.19277    1.000
    N3383    N        0.57831    0.00316    0.13918    1.000
    N3384    N        0.57745    0.94390    0.17839    1.000
    N3385    N        0.54182    0.83095    0.30417    1.000
    N3386    N        0.55323    0.77953    0.34223    1.000
    Si3387   Si       0.56403    0.81419    0.27128    1.000
    Si3388   Si       0.54086    0.87226    0.31591    1.000
    N3389    N        0.57190    0.88311    0.34430    1.000
    Si3390   Si       0.52086    0.79790    0.32141    1.000
    Si3391   Si       0.57086    0.88409    0.24698    1.000
    N3392    N        0.54759    0.89832    0.28073    1.000
    N3393    N        0.54455    0.97712    0.28461    1.000
    N3394    N        0.53668    0.93441    0.33640    1.000
    Si3395   Si       0.55540    0.93884    0.29678    1.000
    Si3396   Si       0.56153    0.91706    0.36773    1.000
    Si3397   Si       0.57120    0.76413    0.48758    1.000
    N3398    N        0.56189    0.83905    0.42293    1.000
    N3399    N        0.54167    0.79031    0.47178    1.000
    Si3400   Si       0.54227    0.80067    0.42988    1.000
    N3401    N        0.56393    0.76799    0.40652    1.000
    Si3402   Si       0.54560    0.87721    0.43021    1.000
    N3403    N        0.53959    0.00368    0.48543    1.000
    N3404    N        0.53632    0.91349    0.40352    1.000
    N3405    N        0.56932    0.95702    0.44636    1.000
    N3406    N        0.53319    0.98598    0.39384    1.000
    N3407    N        0.55369    0.89261    0.47182    1.000
    Si3408   Si       0.53413    0.95179    0.42252    1.000
    N3409    N        0.56242    0.81095    0.57236    1.000
    N3410    N        0.53346    0.86445    0.60332    1.000
    Si3411   Si       0.55433    0.77011    0.55928    1.000
    Si3412   Si       0.52751    0.82267    0.59842    1.000
    Si3413   Si       0.54208    0.94486    0.54883    1.000
    N3414    N        0.55593    0.96313    0.58811    1.000
    N3415    N        0.54426    0.90149    0.54811    1.000
    N3416    N        0.56915    0.94732    0.51576    1.000
    Si3417   Si       0.57351    0.87845    0.61833    1.000
    N3418    N        0.53418    0.80280    0.63556    1.000
    Si3419   Si       0.52730    0.79075    0.70836    1.000
    N3420    N        0.56887    0.79111    0.69155    1.000
    Si3421   Si       0.53807    0.94921    0.62731    1.000
    N3422    N        0.53417    0.99269    0.73201    1.000
    N3423    N        0.51165    0.94017    0.68212    1.000
    N3424    N        0.56925    0.91819    0.63722    1.000
    Si3425   Si       0.53450    0.95033    0.71842    1.000
    N3426    N        0.52541    0.91466    0.74116    1.000
    N3427    N        0.54831    0.85482    0.76284    1.000
    N3428    N        0.56320    0.79594    0.80528    1.000
    Si3429   Si       0.53128    0.77416    0.78683    1.000
    Si3430   Si       0.55537    0.88270    0.83578    1.000
    N3431    N        0.54157    0.76877    0.74481    1.000
    Si3432   Si       0.51879    0.94092    0.81703    1.000
    Si3433   Si       0.55923    0.89673    0.76287    1.000
    N3434    N        0.52998    0.98285    0.81088    1.000
    N3435    N        0.54864    0.91345    0.80419    1.000
    Si3436   Si       0.57472    0.99529    0.81294    1.000
    N3437    N        0.56213    0.82982    0.87792    1.000
    N3438    N        0.56832    0.86969    0.93006    1.000
    Si3439   Si       0.54540    0.78220    0.94497    1.000
    N3440    N        0.52615    0.85318    0.98574    1.000
    N3441    N        0.52872    0.76887    0.98166    1.000
    Si3442   Si       0.52715    0.85851    0.94343    1.000
    N3443    N        0.52413    0.81646    0.92870    1.000
    Si3444   Si       0.52013    0.82680    0.88688    1.000
    N3445    N        0.57081    0.90752    0.86839    1.000
    N3446    N        0.57181    0.95481    0.98412    1.000
    N3447    N        0.53090    0.93396    0.92795    1.000
    Si3448   Si       0.56452    0.90994    0.91225    1.000
    N3449    N        0.53689    0.98852    0.88416    1.000
    N3450    N        0.53030    0.00098    0.95194    1.000
    Si3451   Si       0.53199    0.95920    0.96404    1.000
    Si3452   Si       0.59566    0.06495    0.00987    1.000
    N3453    N        0.60056    0.11436    0.06460    1.000
    N3454    N        0.62473    0.03536    0.02171    1.000
    Si3455   Si       0.63026    0.11954    0.09754    1.000
    N3456    N        0.58181    0.06767    0.11403    1.000
    N3457    N        0.61311    0.10387    0.00194    1.000
    N3458    N        0.63594    0.01831    0.09232    1.000
    Si3459   Si       0.60833    0.13717    0.02868    1.000
    N3460    N        0.59606    0.23923    0.00871    1.000
    N3461    N        0.63198    0.17179    0.01340    1.000
    Si3462   Si       0.60403    0.11582    0.21048    1.000
    Si3463   Si       0.60125    0.08714    0.14580    1.000
    Si3464   Si       0.60071    0.02289    0.23008    1.000
    N3465    N        0.58537    0.08618    0.18545    1.000
    N3466    N        0.60451    0.12752    0.13260    1.000
    N3467    N        0.63440    0.04146    0.21076    1.000
    N3468    N        0.58912    0.15407    0.19780    1.000
    Si3469   Si       0.61004    0.21281    0.15442    1.000
    Si3470   Si       0.57916    0.19128    0.21958    1.000
    N3471    N        0.60370    0.21955    0.19677    1.000
    N3472    N        0.60759    0.24416    0.11997    1.000
    Si3473   Si       0.57739    0.15268    0.15417    1.000
    Si3474   Si       0.61983    0.09669    0.35640    1.000
    Si3475   Si       0.62907    0.10840    0.27381    1.000
    N3476    N        0.58304    0.03696    0.26712    1.000
    N3477    N        0.59325    0.10177    0.25069    1.000
    N3478    N        0.63349    0.09742    0.31576    1.000
    Si3479   Si       0.61722    0.17384    0.34993    1.000
    N3480    N        0.59099    0.16093    0.31772    1.000
    N3481    N        0.59295    0.19661    0.26059    1.000
    Si3482   Si       0.62237    0.17893    0.28883    1.000
    N3483    N        0.57530    0.25131    0.31844    1.000
    N3484    N        0.62276    0.08604    0.49030    1.000
    Si3485   Si       0.62118    0.04714    0.41405    1.000
    N3486    N        0.58682    0.07334    0.42633    1.000
    Si3487   Si       0.58390    0.08481    0.47018    1.000
    N3488    N        0.59818    0.01046    0.40410    1.000
    Si3489   Si       0.61393    0.20512    0.41200    1.000
    N3490    N        0.58863    0.22732    0.44256    1.000
    N3491    N        0.59828    0.20680    0.37154    1.000
    N3492    N        0.63111    0.13686    0.37028    1.000
    Si3493   Si       0.59822    0.22161    0.48465    1.000
    N3494    N        0.59568    0.16460    0.42047    1.000
    Si3495   Si       0.63413    0.14525    0.41292    1.000
    N3496    N        0.62344    0.05661    0.56388    1.000
    Si3497   Si       0.59112    0.06574    0.59149    1.000
    Si3498   Si       0.62768    0.01583    0.54287    1.000
    N3499    N        0.60011    0.10237    0.61175    1.000
    N3500    N        0.58581    0.01487    0.52388    1.000
    Si3501   Si       0.59696    0.18848    0.54833    1.000
    N3502    N        0.59401    0.14920    0.56845    1.000
    Si3503   Si       0.58251    0.23674    0.61178    1.000
    N3504    N        0.57912    0.25559    0.50600    1.000
    N3505    N        0.63875    0.18660    0.54376    1.000
    Si3506   Si       0.58782    0.05278    0.68709    1.000
    N3507    N        0.59143    0.07564    0.72172    1.000
    N3508    N        0.62390    0.04775    0.65918    1.000
    N3509    N        0.59822    0.01194    0.70348    1.000
    Si3510   Si       0.62282    0.13157    0.63395    1.000
    N3511    N        0.61684    0.22383    0.63896    1.000
    Si3512   Si       0.59432    0.24678    0.71675    1.000
    Si3513   Si       0.61919    0.19378    0.67030    1.000
    N3514    N        0.59663    0.15928    0.65518    1.000
    N3515    N        0.60251    0.20385    0.71095    1.000
    Si3516   Si       0.60093    0.06830    0.82739    1.000
    Si3517   Si       0.59676    0.10008    0.75660    1.000
    N3518    N        0.60261    0.09194    0.86524    1.000
    N3519    N        0.57908    0.08666    0.79468    1.000
    Si3520   Si       0.60742    0.17175    0.82161    1.000
    N3521    N        0.59293    0.19333    0.78614    1.000
    N3522    N        0.63360    0.19118    0.85106    1.000
    N3523    N        0.58762    0.25384    0.75791    1.000
    Si3524   Si       0.60327    0.17714    0.74730    1.000
    N3525    N        0.58046    0.13997    0.74305    1.000
    Si3526   Si       0.59665    0.04427    0.93932    1.000
    N3527    N        0.62583    0.07780    0.93428    1.000
    N3528    N        0.58925    0.21274    0.90534    1.000
    N3529    N        0.58218    0.18005    0.96685    1.000
    Si3530   Si       0.60981    0.20210    0.99028    1.000
    Si3531   Si       0.63069    0.20757    0.88999    1.000
    Si3532   Si       0.60400    0.32691    0.06714    1.000
    N3533    N        0.60588    0.33822    0.10864    1.000
    N3534    N        0.60006    0.28449    0.06172    1.000
    Si3535   Si       0.63149    0.26250    0.08857    1.000
    Si3536   Si       0.57860    0.36059    0.00295    1.000
    Si3537   Si       0.60995    0.43594    0.10244    1.000
    Si3538   Si       0.59052    0.44370    0.01816    1.000
    N3539    N        0.63082    0.46041    0.02559    1.000
    N3540    N        0.58373    0.40405    0.00471    1.000
    N3541    N        0.58194    0.46188    0.08263    1.000
    Si3542   Si       0.58489    0.50526    0.07622    1.000
    N3543    N        0.63261    0.41540    0.07257    1.000
    N3544    N        0.59120    0.36110    0.23273    1.000
    N3545    N        0.61353    0.29838    0.21583    1.000
    N3546    N        0.58369    0.35143    0.17210    1.000
    Si3547   Si       0.57815    0.36455    0.13199    1.000
    Si3548   Si       0.57993    0.32524    0.20729    1.000
    Si3549   Si       0.60320    0.38206    0.19612    1.000
    N3550    N        0.58723    0.40900    0.13002    1.000
    N3551    N        0.58606    0.42039    0.19812    1.000
    Si3552   Si       0.60525    0.44512    0.22769    1.000
    Si3553   Si       0.61261    0.49354    0.14622    1.000
    N3554    N        0.58398    0.48159    0.23663    1.000
    N3555    N        0.61284    0.30118    0.28801    1.000
    N3556    N        0.61061    0.36756    0.30275    1.000
    Si3557   Si       0.61259    0.27403    0.25278    1.000
    N3558    N        0.61265    0.37033    0.37001    1.000
    Si3559   Si       0.57929    0.36657    0.33276    1.000
    Si3560   Si       0.58647    0.38375    0.26795    1.000
    N3561    N        0.61780    0.48540    0.29689    1.000
    N3562    N        0.60567    0.42317    0.26543    1.000
    N3563    N        0.59325    0.43170    0.33544    1.000
    Si3564   Si       0.62210    0.44005    0.30217    1.000
    N3565    N        0.60267    0.29635    0.45766    1.000
    Si3566   Si       0.60882    0.33036    0.42958    1.000
    Si3567   Si       0.60170    0.26504    0.42430    1.000
    N3568    N        0.62574    0.36601    0.44368    1.000
    Si3569   Si       0.58143    0.37896    0.39643    1.000
    N3570    N        0.63424    0.31310    0.39734    1.000
    Si3571   Si       0.60951    0.40671    0.45696    1.000
    N3572    N        0.58044    0.40907    0.42486    1.000
    N3573    N        0.62888    0.44490    0.45785    1.000
    Si3574   Si       0.61446    0.48330    0.44302    1.000
    N3575    N        0.61276    0.27330    0.59923    1.000
    Si3576   Si       0.60284    0.29255    0.50195    1.000
    Si3577   Si       0.58492    0.30067    0.61811    1.000
    N3578    N        0.63770    0.28678    0.52528    1.000
    N3579    N        0.59069    0.39721    0.49505    1.000
    N3580    N        0.59137    0.45167    0.55981    1.000
    Si3581   Si       0.59154    0.49351    0.57308    1.000
    Si3582   Si       0.62880    0.43194    0.57626    1.000
    Si3583   Si       0.62496    0.38675    0.61375    1.000
    N3584    N        0.63315    0.50317    0.57761    1.000
    N3585    N        0.63338    0.38876    0.57193    1.000
    N3586    N        0.58619    0.37785    0.62446    1.000
    N3587    N        0.62732    0.27092    0.70580    1.000
    N3588    N        0.60160    0.31574    0.65451    1.000
    Si3589   Si       0.58964    0.35611    0.66205    1.000
    N3590    N        0.61673    0.37944    0.68675    1.000
    Si3591   Si       0.59354    0.39691    0.72060    1.000
    N3592    N        0.62832    0.48728    0.74003    1.000
    N3593    N        0.62981    0.42987    0.62035    1.000
    N3594    N        0.57855    0.50862    0.68663    1.000
    N3595    N        0.61062    0.32558    0.85495    1.000
    Si3596   Si       0.59316    0.27435    0.79575    1.000
    Si3597   Si       0.62694    0.33273    0.81543    1.000
    N3598    N        0.59272    0.31571    0.78862    1.000
    N3599    N        0.61509    0.37426    0.81196    1.000
    N3600    N        0.63013    0.26549    0.81622    1.000
    N3601    N        0.58088    0.36906    0.75144    1.000
    Si3602   Si       0.59936    0.39746    0.77981    1.000
    N3603    N        0.60028    0.48695    0.81339    1.000
    Si3604   Si       0.61391    0.47163    0.85272    1.000
    Si3605   Si       0.59470    0.40469    0.83851    1.000
    N3606    N        0.62624    0.42938    0.85284    1.000
    N3607    N        0.57659    0.42439    0.80339    1.000
    N3608    N        0.62214    0.41767    0.74952    1.000
    N3609    N        0.61019    0.35981    0.97044    1.000
    Si3610   Si       0.61413    0.26416    0.97826    1.000
    N3611    N        0.58744    0.27752    0.94644    1.000
    Si3612   Si       0.57397    0.38227    0.91112    1.000
    Si3613   Si       0.59631    0.25647    0.90939    1.000
    N3614    N        0.61392    0.40069    0.91791    1.000
    Si3615   Si       0.60189    0.40595    0.96411    1.000
    N3616    N        0.59482    0.46055    0.97609    1.000
    N3617    N        0.58294    0.50649    0.92742    1.000
    N3618    N        0.61676    0.58431    0.09330    1.000
    Si3619   Si       0.60990    0.54419    0.00578    1.000
    N3620    N        0.60610    0.52076    0.04314    1.000
    Si3621   Si       0.61072    0.62616    0.08822    1.000
    N3622    N        0.62499    0.58600    0.00508    1.000
    N3623    N        0.59758    0.52165    0.11413    1.000
    Si3624   Si       0.62200    0.67519    0.02621    1.000
    N3625    N        0.58577    0.69242    0.04580    1.000
    Si3626   Si       0.58561    0.73475    0.05016    1.000
    N3627    N        0.60001    0.75155    0.08835    1.000
    N3628    N        0.62809    0.65426    0.11543    1.000
    N3629    N        0.63521    0.64000    0.05111    1.000
    Si3630   Si       0.59230    0.56497    0.12407    1.000
    N3631    N        0.58287    0.59751    0.22679    1.000
    N3632    N        0.61223    0.57778    0.16331    1.000
    Si3633   Si       0.60310    0.61146    0.19111    1.000
    Si3634   Si       0.60265    0.67440    0.14594    1.000
    Si3635   Si       0.60545    0.73798    0.18537    1.000
    N3636    N        0.58171    0.64182    0.16758    1.000
    N3637    N        0.61298    0.73679    0.22751    1.000
    N3638    N        0.62370    0.69875    0.17527    1.000
    N3639    N        0.59163    0.67163    0.23567    1.000
    Si3640   Si       0.62784    0.67360    0.20949    1.000
    Si3641   Si       0.57899    0.74658    0.12822    1.000
    Si3642   Si       0.59579    0.58389    0.26501    1.000
    N3643    N        0.61247    0.61114    0.36105    1.000
    N3644    N        0.62641    0.54138    0.34483    1.000
    Si3645   Si       0.60749    0.50951    0.26204    1.000
    N3646    N        0.58085    0.54253    0.26831    1.000
    N3647    N        0.61247    0.64436    0.29292    1.000
    Si3648   Si       0.58932    0.74351    0.26354    1.000
    Si3649   Si       0.62309    0.71412    0.32945    1.000
    Si3650   Si       0.61726    0.67781    0.26923    1.000
    N3651    N        0.60357    0.71162    0.29158    1.000
    N3652    N        0.61476    0.68602    0.36153    1.000
    N3653    N        0.61917    0.75571    0.34561    1.000
    N3654    N        0.60811    0.56609    0.41795    1.000
    N3655    N        0.59881    0.51384    0.47279    1.000
    N3656    N        0.62757    0.65414    0.41931    1.000
    N3657    N        0.60057    0.66571    0.48576    1.000
    Si3658   Si       0.59301    0.70969    0.39053    1.000
    Si3659   Si       0.63025    0.64818    0.37677    1.000
    N3660    N        0.62867    0.73721    0.40489    1.000
    Si3661   Si       0.59068    0.65820    0.44402    1.000
    Si3662   Si       0.61484    0.59005    0.55038    1.000
    N3663    N        0.61676    0.57106    0.51139    1.000
    Si3664   Si       0.61080    0.52678    0.51157    1.000
    N3665    N        0.58236    0.58323    0.57723    1.000
    N3666    N        0.61904    0.63263    0.54508    1.000
    Si3667   Si       0.59273    0.58788    0.62066    1.000
    Si3668   Si       0.61428    0.65102    0.58630    1.000
    N3669    N        0.59833    0.70054    0.54505    1.000
    Si3670   Si       0.58126    0.70727    0.58408    1.000
    Si3671   Si       0.63418    0.64978    0.50872    1.000
    N3672    N        0.60239    0.70748    0.62317    1.000
    N3673    N        0.61952    0.62418    0.62328    1.000
    N3674    N        0.60856    0.54770    0.62984    1.000
    N3675    N        0.58459    0.58820    0.70501    1.000
    Si3676   Si       0.62866    0.58339    0.70762    1.000
    Si3677   Si       0.60924    0.51698    0.71607    1.000
    Si3678   Si       0.59375    0.51050    0.64666    1.000
    Si3679   Si       0.58436    0.67934    0.70798    1.000
    Si3680   Si       0.62742    0.64678    0.65961    1.000
    N3681    N        0.61221    0.75540    0.74289    1.000
    N3682    N        0.62529    0.68217    0.71968    1.000
    N3683    N        0.58517    0.65181    0.67414    1.000
    Si3684   Si       0.57651    0.75805    0.72036    1.000
    Si3685   Si       0.60742    0.58746    0.77881    1.000
    Si3686   Si       0.60692    0.56627    0.84616    1.000
    N3687    N        0.62446    0.55737    0.80737    1.000
    N3688    N        0.59730    0.53917    0.75361    1.000
    Si3689   Si       0.62021    0.51331    0.78552    1.000
    N3690    N        0.60793    0.63067    0.79585    1.000
    N3691    N        0.63552    0.58863    0.86918    1.000
    N3692    N        0.59564    0.68575    0.85519    1.000
    Si3693   Si       0.62110    0.69967    0.82322    1.000
    N3694    N        0.60692    0.69695    0.78478    1.000
    Si3695   Si       0.62867    0.71445    0.74859    1.000
    Si3696   Si       0.60288    0.75236    0.86250    1.000
    N3697    N        0.63289    0.73916    0.83433    1.000
    Si3698   Si       0.58026    0.66265    0.78002    1.000
    N3699    N        0.59689    0.53288    0.87139    1.000
    Si3700   Si       0.60456    0.61301    0.97627    1.000
    N3701    N        0.62744    0.61659    0.93778    1.000
    Si3702   Si       0.61968    0.51271    0.90385    1.000
    N3703    N        0.63763    0.54422    0.92664    1.000
    N3704    N        0.60741    0.73316    0.90006    1.000
    N3705    N        0.60384    0.72574    0.97031    1.000
    N3706    N        0.58250    0.67722    0.92254    1.000
    Si3707   Si       0.61524    0.68791    0.89369    1.000
    Si3708   Si       0.58611    0.68565    0.96746    1.000
    N3709    N        0.60389    0.65456    0.99127    1.000
    Si3710   Si       0.61223    0.75400    0.93835    1.000
    Si3711   Si       0.61076    0.80359    0.01698    1.000
    N3712    N        0.61962    0.87261    0.08849    1.000
    Si3713   Si       0.63261    0.77196    0.06836    1.000
    N3714    N        0.63110    0.81445    0.05625    1.000
    N3715    N        0.61373    0.76059    0.02642    1.000
    N3716    N        0.59548    0.86661    0.99600    1.000
    Si3717   Si       0.62834    0.00092    0.04821    1.000
    N3718    N        0.60210    0.92158    0.04329    1.000
    Si3719   Si       0.58604    0.89245    0.07151    1.000
    N3720    N        0.58630    0.98871    0.04700    1.000
    Si3721   Si       0.62839    0.86453    0.13048    1.000
    Si3722   Si       0.61825    0.83546    0.21773    1.000
    Si3723   Si       0.59548    0.80387    0.15047    1.000
    N3724    N        0.58903    0.82390    0.18700    1.000
    N3725    N        0.61640    0.76435    0.15313    1.000
    N3726    N        0.63097    0.82193    0.13111    1.000
    N3727    N        0.62472    0.94824    0.12468    1.000
    N3728    N        0.59369    0.88322    0.15209    1.000
    Si3729   Si       0.62044    0.99430    0.12597    1.000
    N3730    N        0.61381    0.98010    0.22590    1.000
    N3731    N        0.60019    0.91513    0.24399    1.000
    Si3732   Si       0.59201    0.92436    0.14052    1.000
    Si3733   Si       0.60927    0.94062    0.20839    1.000
    N3734    N        0.61237    0.82471    0.34067    1.000
    Si3735   Si       0.59449    0.78637    0.32887    1.000
    Si3736   Si       0.61139    0.86876    0.34089    1.000
    N3737    N        0.59555    0.78376    0.28529    1.000
    N3738    N        0.58783    0.84486    0.25075    1.000
    N3739    N        0.63381    0.88431    0.30728    1.000
    Si3740   Si       0.62612    0.91911    0.27921    1.000
    N3741    N        0.59865    0.94352    0.30302    1.000
    Si3742   Si       0.61060    0.96396    0.33718    1.000
    N3743    N        0.58465    0.99937    0.34013    1.000
    Si3744   Si       0.60583    0.84881    0.41891    1.000
    N3745    N        0.62007    0.80910    0.40533    1.000
    Si3746   Si       0.60510    0.77244    0.42067    1.000
    N3747    N        0.63059    0.85093    0.45527    1.000
    N3748    N        0.60532    0.76170    0.46230    1.000
    N3749    N        0.63328    0.87140    0.37957    1.000
    N3750    N        0.60024    0.93803    0.37100    1.000
    N3751    N        0.61478    0.90808    0.49305    1.000
    Si3752   Si       0.62711    0.91320    0.39532    1.000
    Si3753   Si       0.59094    0.91787    0.45610    1.000
    Si3754   Si       0.60582    0.97705    0.43066    1.000
    N3755    N        0.59354    0.89343    0.42180    1.000
    N3756    N        0.61577    0.99253    0.47021    1.000
    N3757    N        0.63197    0.93986    0.43221    1.000
    Si3758   Si       0.59738    0.83569    0.56294    1.000
    N3759    N        0.60408    0.86954    0.58911    1.000
    N3760    N        0.59332    0.85473    0.52309    1.000
    N3761    N        0.58632    0.76832    0.53106    1.000
    Si3762   Si       0.62921    0.77634    0.54072    1.000
    N3763    N        0.63479    0.81104    0.57023    1.000
    Si3764   Si       0.62680    0.84239    0.49789    1.000
    Si3765   Si       0.58718    0.98973    0.60049    1.000
    N3766    N        0.62215    0.98634    0.57496    1.000
    N3767    N        0.63237    0.92520    0.61340    1.000
    Si3768   Si       0.57818    0.98208    0.49161    1.000
    Si3769   Si       0.57620    0.89855    0.51512    1.000
    N3770    N        0.60879    0.79053    0.63271    1.000
    N3771    N        0.58194    0.85019    0.64965    1.000
    Si3772   Si       0.57480    0.80774    0.65283    1.000
    Si3773   Si       0.62209    0.00412    0.66498    1.000
    Si3774   Si       0.61364    0.92780    0.72168    1.000
    N3775    N        0.59877    0.97897    0.64043    1.000
    N3776    N        0.62769    0.91679    0.68350    1.000
    Si3777   Si       0.60795    0.93590    0.64789    1.000
    Si3778   Si       0.57750    0.99308    0.73637    1.000
    N3779    N        0.57751    0.94999    0.71883    1.000
    N3780    N        0.58785    0.85473    0.81917    1.000
    N3781    N        0.61360    0.79508    0.85766    1.000
    Si3782   Si       0.62709    0.87112    0.82531    1.000
    N3783    N        0.61248    0.82551    0.75489    1.000
    Si3784   Si       0.62958    0.86553    0.75163    1.000
    Si3785   Si       0.57904    0.82877    0.78133    1.000
    Si3786   Si       0.57797    0.81546    0.84209    1.000
    N3787    N        0.62747    0.91098    0.83856    1.000
    N3788    N        0.59731    0.99517    0.77605    1.000
    N3789    N        0.59050    0.97513    0.84810    1.000
    Si3790   Si       0.60599    0.93792    0.87125    1.000
    N3791    N        0.59911    0.89629    0.74849    1.000
    N3792    N        0.58676    0.79274    0.93600    1.000
    Si3793   Si       0.58708    0.83200    0.91574    1.000
    N3794    N        0.62942    0.84069    0.90797    1.000
    N3795    N        0.59594    0.93994    0.91624    1.000
    Si3796   Si       0.60393    0.96007    0.95328    1.000
    N3797    N        0.61517    0.00538    0.95023    1.000
    N3798    N        0.66186    0.09115    0.08146    1.000
    Si3799   Si       0.66590    0.04042    0.01147    1.000
    Si3800   Si       0.66864    0.04681    0.08780    1.000
    N3801    N        0.68589    0.03482    0.04911    1.000
    Si3802   Si       0.68481    0.12622    0.06865    1.000
    N3803    N        0.65599    0.15435    0.08660    1.000
    Si3804   Si       0.66468    0.19361    0.10386    1.000
    N3805    N        0.66040    0.23082    0.07720    1.000
    Si3806   Si       0.67127    0.16106    0.99676    1.000
    N3807    N        0.68782    0.06442    0.18792    1.000
    Si3808   Si       0.67070    0.10219    0.17373    1.000
    N3809    N        0.64709    0.11722    0.20656    1.000
    Si3810   Si       0.65220    0.04386    0.17125    1.000
    N3811    N        0.64294    0.07797    0.14936    1.000
    Si3812   Si       0.66905    0.04772    0.23583    1.000
    N3813    N        0.69601    0.04298    0.11978    1.000
    N3814    N        0.64906    0.19508    0.14363    1.000
    N3815    N        0.66130    0.25252    0.19012    1.000
    N3816    N        0.66210    0.18457    0.20969    1.000
    Si3817   Si       0.66554    0.14633    0.23225    1.000
    Si3818   Si       0.67729    0.17728    0.16967    1.000
    Si3819   Si       0.64261    0.22360    0.21609    1.000
    N3820    N        0.69157    0.13833    0.15893    1.000
    N3821    N        0.65973    0.08115    0.26221    1.000
    N3822    N        0.67129    0.04095    0.32374    1.000
    Si3823   Si       0.67041    0.07907    0.30451    1.000
    Si3824   Si       0.67565    0.04013    0.36723    1.000
    Si3825   Si       0.67703    0.22135    0.33303    1.000
    N3826    N        0.64632    0.19260    0.32168    1.000
    N3827    N        0.64160    0.14941    0.26640    1.000
    N3828    N        0.64614    0.24597    0.25496    1.000
    Si3829   Si       0.68943    0.25683    0.26351    1.000
    Si3830   Si       0.65580    0.08450    0.46303    1.000
    N3831    N        0.65472    0.11959    0.43784    1.000
    N3832    N        0.65252    0.04580    0.44474    1.000
    N3833    N        0.69298    0.10050    0.48560    1.000
    N3834    N        0.64040    0.06556    0.37908    1.000
    Si3835   Si       0.65488    0.01021    0.46988    1.000
    Si3836   Si       0.69565    0.18875    0.40338    1.000
    N3837    N        0.65373    0.18596    0.41266    1.000
    Si3838   Si       0.68879    0.13736    0.45925    1.000
    Si3839   Si       0.66896    0.23495    0.44658    1.000
    N3840    N        0.64150    0.21797    0.47828    1.000
    N3841    N        0.64149    0.25007    0.41478    1.000
    Si3842   Si       0.65888    0.08083    0.56915    1.000
    N3843    N        0.66335    0.12018    0.55306    1.000
    N3844    N        0.67199    0.07421    0.61013    1.000
    N3845    N        0.65978    0.01981    0.51259    1.000
    Si3846   Si       0.69256    0.12577    0.52099    1.000
    N3847    N        0.69432    0.05934    0.55307    1.000
    N3848    N        0.64854    0.15948    0.61141    1.000
    Si3849   Si       0.66538    0.19832    0.51012    1.000
    N3850    N        0.68992    0.23071    0.52476    1.000
    N3851    N        0.66755    0.25559    0.58128    1.000
    Si3852   Si       0.63983    0.15117    0.56935    1.000
    Si3853   Si       0.64710    0.24982    0.62012    1.000
    N3854    N        0.67988    0.16068    0.49375    1.000
    N3855    N        0.65253    0.11513    0.66179    1.000
    Si3856   Si       0.65868    0.07246    0.65287    1.000
    N3857    N        0.65938    0.18274    0.68543    1.000
    Si3858   Si       0.68308    0.18354    0.61977    1.000
    Si3859   Si       0.66710    0.19527    0.72668    1.000
    N3860    N        0.68161    0.22588    0.63677    1.000
    Si3861   Si       0.68107    0.14623    0.67587    1.000
    Si3862   Si       0.69708    0.25766    0.66195    1.000
    Si3863   Si       0.67773    0.05521    0.84021    1.000
    Si3864   Si       0.66442    0.06219    0.77696    1.000
    N3865    N        0.66649    0.01704    0.76886    1.000
    N3866    N        0.64148    0.09589    0.76306    1.000
    N3867    N        0.64132    0.05417    0.81592    1.000
    Si3868   Si       0.65927    0.13266    0.77831    1.000
    N3869    N        0.69872    0.01798    0.83546    1.000
    N3870    N        0.69561    0.08033    0.81072    1.000
    N3871    N        0.65695    0.22772    0.75643    1.000
    Si3872   Si       0.65909    0.15402    0.85203    1.000
    N3873    N        0.68741    0.24411    0.83000    1.000
    N3874    N        0.64499    0.16315    0.74951    1.000
    Si3875   Si       0.66312    0.25218    0.79254    1.000
    N3876    N        0.63712    0.14287    0.81466    1.000
    N3877    N        0.67297    0.07559    0.98807    1.000
    N3878    N        0.66896    0.06100    0.88199    1.000
    Si3879   Si       0.64242    0.09917    0.96878    1.000
    N3880    N        0.65707    0.12894    0.88824    1.000
    Si3881   Si       0.63759    0.09011    0.89306    1.000
    Si3882   Si       0.69580    0.03978    0.90775    1.000
    Si3883   Si       0.67552    0.15068    0.92013    1.000
    Si3884   Si       0.67371    0.21807    0.94694    1.000
    N3885    N        0.69012    0.19757    0.98287    1.000
    N3886    N        0.66264    0.19186    0.91483    1.000
    N3887    N        0.66424    0.13707    0.96085    1.000
    N3888    N        0.63572    0.22912    0.96103    1.000
    N3889    N        0.63438    0.25140    0.88839    1.000
    Si3890   Si       0.66395    0.32104    0.01749    1.000
    N3891    N        0.65797    0.29529    0.09857    1.000
    N3892    N        0.66978    0.36165    0.10431    1.000
    N3893    N        0.63911    0.34339    0.04578    1.000
    Si3894   Si       0.65686    0.37651    0.06562    1.000
    Si3895   Si       0.64599    0.33053    0.12105    1.000
    N3896    N        0.68695    0.47725    0.03380    1.000
    N3897    N        0.68179    0.40020    0.03381    1.000
    Si3898   Si       0.66567    0.43942    0.04988    1.000
    Si3899   Si       0.64674    0.50307    0.03773    1.000
    N3900    N        0.69193    0.45101    0.08943    1.000
    N3901    N        0.65520    0.32506    0.16248    1.000
    Si3902   Si       0.67601    0.35579    0.18742    1.000
    N3903    N        0.68550    0.32162    0.21575    1.000
    Si3904   Si       0.65166    0.29638    0.19522    1.000
    Si3905   Si       0.66838    0.42542    0.19802    1.000
    Si3906   Si       0.65566    0.49897    0.20761    1.000
    N3907    N        0.64547    0.45706    0.21514    1.000
    Si3908   Si       0.68042    0.46300    0.13276    1.000
    N3909    N        0.64612    0.38834    0.18878    1.000
    N3910    N        0.69490    0.40968    0.22940    1.000
    N3911    N        0.63671    0.46360    0.12751    1.000
    N3912    N        0.67100    0.35993    0.27199    1.000
    N3913    N        0.65959    0.32730    0.33555    1.000
    Si3914   Si       0.68591    0.29089    0.32481    1.000
    N3915    N        0.68423    0.29608    0.28303    1.000
    Si3916   Si       0.64057    0.33608    0.29434    1.000
    N3917    N        0.66824    0.25954    0.34892    1.000
    N3918    N        0.66494    0.43118    0.29707    1.000
    N3919    N        0.66280    0.47453    0.35117    1.000
    Si3920   Si       0.68437    0.40208    0.27210    1.000
    Si3921   Si       0.69050    0.45026    0.32768    1.000
    Si3922   Si       0.64631    0.34565    0.37207    1.000
    Si3923   Si       0.65878    0.27721    0.38780    1.000
    Si3924   Si       0.66885    0.36659    0.44257    1.000
    N3925    N        0.67331    0.37093    0.39829    1.000
    N3926    N        0.68585    0.26773    0.47039    1.000
    N3927    N        0.68609    0.33165    0.46077    1.000
    Si3928   Si       0.67499    0.48395    0.39213    1.000
    N3929    N        0.68426    0.44411    0.41045    1.000
    N3930    N        0.68138    0.40302    0.46289    1.000
    N3931    N        0.64303    0.50335    0.41756    1.000
    Si3932   Si       0.67191    0.44490    0.45286    1.000
    N3933    N        0.69149    0.47665    0.47525    1.000
    N3934    N        0.65786    0.32372    0.58209    1.000
    Si3935   Si       0.66576    0.36164    0.56153    1.000
    N3936    N        0.67507    0.36291    0.51859    1.000
    Si3937   Si       0.67755    0.27038    0.51331    1.000
    Si3938   Si       0.64034    0.28626    0.56799    1.000
    N3939    N        0.66574    0.44917    0.56262    1.000
    Si3940   Si       0.66690    0.49272    0.55157    1.000
    Si3941   Si       0.67453    0.32637    0.62294    1.000
    N3942    N        0.65523    0.36348    0.63456    1.000
    N3943    N        0.66594    0.28439    0.64515    1.000
    Si3944   Si       0.65748    0.36905    0.67844    1.000
    N3945    N        0.66281    0.32987    0.69632    1.000
    Si3946   Si       0.66164    0.26530    0.73066    1.000
    Si3947   Si       0.63698    0.30143    0.67500    1.000
    N3948    N        0.63392    0.49029    0.65603    1.000
    Si3949   Si       0.65009    0.45176    0.65208    1.000
    N3950    N        0.65799    0.43759    0.69389    1.000
    Si3951   Si       0.64726    0.44776    0.73664    1.000
    N3952    N        0.69670    0.38361    0.69278    1.000
    N3953    N        0.67129    0.33870    0.81158    1.000
    N3954    N        0.67087    0.28765    0.76631    1.000
    Si3955   Si       0.68475    0.36856    0.84010    1.000
    Si3956   Si       0.65478    0.26390    0.85344    1.000
    N3957    N        0.67391    0.30090    0.86740    1.000
    N3958    N        0.68347    0.45056    0.76296    1.000
    N3959    N        0.69301    0.40588    0.82196    1.000
    N3960    N        0.65835    0.37195    0.87227    1.000
    N3961    N        0.64728    0.31893    0.92287    1.000
    Si3962   Si       0.68065    0.29274    0.90982    1.000
    N3963    N        0.67855    0.34670    0.98323    1.000
    Si3964   Si       0.64395    0.33303    0.88317    1.000
    Si3965   Si       0.63870    0.33051    0.96294    1.000
    N3966    N        0.63605    0.29915    0.99290    1.000
    Si3967   Si       0.64497    0.41049    0.88837    1.000
    Si3968   Si       0.63837    0.46202    0.97980    1.000
    N3969    N        0.64399    0.41991    0.97620    1.000
    N3970    N        0.64291    0.48798    0.87953    1.000
    Si3971   Si       0.67284    0.39172    0.99042    1.000
    N3972    N        0.68019    0.43117    0.90244    1.000
    N3973    N        0.65638    0.48178    0.94310    1.000
    Si3974   Si       0.67769    0.47463    0.90434    1.000
    Si3975   Si       0.65494    0.60696    0.02843    1.000
    N3976    N        0.67850    0.58803    0.05857    1.000
    Si3977   Si       0.65546    0.56283    0.08770    1.000
    N3978    N        0.66395    0.52340    0.07201    1.000
    N3979    N        0.68558    0.62850    0.00407    1.000
    N3980    N        0.64402    0.51780    0.99510    1.000
    N3981    N        0.68054    0.75401    0.01544    1.000
    N3982    N        0.65643    0.70284    0.06775    1.000
    Si3983   Si       0.65745    0.66331    0.08382    1.000
    Si3984   Si       0.67974    0.72406    0.09619    1.000
    N3985    N        0.65340    0.69662    0.00562    1.000
    Si3986   Si       0.68666    0.71395    0.03447    1.000
    N3987    N        0.67110    0.56739    0.12985    1.000
    N3988    N        0.67893    0.57748    0.19375    1.000
    Si3989   Si       0.64951    0.55797    0.16649    1.000
    Si3990   Si       0.68042    0.62273    0.19495    1.000
    N3991    N        0.63667    0.51534    0.17379    1.000
    N3992    N        0.64269    0.52217    0.24182    1.000
    N3993    N        0.63866    0.63444    0.19779    1.000
    Si3994   Si       0.65544    0.72949    0.23772    1.000
    N3995    N        0.68900    0.69746    0.12970    1.000
    N3996    N        0.65178    0.68651    0.24393    1.000
    N3997    N        0.68608    0.75261    0.21441    1.000
    N3998    N        0.67766    0.52470    0.30189    1.000
    Si3999   Si       0.66532    0.54991    0.26809    1.000
    N4000    N        0.66784    0.59671    0.32972    1.000
    Si4001   Si       0.64681    0.61728    0.29666    1.000
    Si4002   Si       0.64294    0.57859    0.35945    1.000
    N4003    N        0.63770    0.58382    0.27018    1.000
    Si4004   Si       0.64346    0.50605    0.32490    1.000
    Si4005   Si       0.69312    0.63169    0.33130    1.000
    Si4006   Si       0.69131    0.66712    0.25726    1.000
    N4007    N        0.65608    0.75213    0.27638    1.000
    Si4008   Si       0.69004    0.69449    0.36533    1.000
    N4009    N        0.68153    0.64360    0.29116    1.000
    N4010    N        0.66666    0.71704    0.33753    1.000
    N4011    N        0.67223    0.65464    0.36199    1.000
    Si4012   Si       0.68542    0.72988    0.29946    1.000
    Si4013   Si       0.65437    0.74800    0.37049    1.000
    Si4014   Si       0.68308    0.51926    0.48336    1.000
    N4015    N        0.66362    0.55117    0.45958    1.000
    N4016    N        0.65141    0.62590    0.47911    1.000
    N4017    N        0.67129    0.56468    0.39020    1.000
    Si4018   Si       0.64635    0.54672    0.42063    1.000
    Si4019   Si       0.65275    0.58390    0.48952    1.000
    N4020    N        0.69372    0.63134    0.42656    1.000
    N4021    N        0.66611    0.69315    0.45663    1.000
    Si4022   Si       0.66408    0.72782    0.43013    1.000
    Si4023   Si       0.66191    0.65206    0.44450    1.000
    N4024    N        0.68828    0.72781    0.39489    1.000
    Si4025   Si       0.67650    0.70791    0.49731    1.000
    N4026    N        0.64838    0.57114    0.57316    1.000
    Si4027   Si       0.64051    0.54021    0.60194    1.000
    Si4028   Si       0.68756    0.58181    0.55925    1.000
    N4029    N        0.68627    0.58191    0.51663    1.000
    N4030    N        0.65192    0.51317    0.51512    1.000
    N4031    N        0.65151    0.73950    0.51627    1.000
    N4032    N        0.66505    0.67721    0.52598    1.000
    Si4033   Si       0.68332    0.66393    0.56483    1.000
    N4034    N        0.64784    0.68140    0.58608    1.000
    Si4035   Si       0.64084    0.71190    0.54958    1.000
    N4036    N        0.63493    0.74812    0.57592    1.000
    N4037    N        0.64435    0.62139    0.69205    1.000
    N4038    N        0.67304    0.53463    0.62762    1.000
    Si4039   Si       0.66208    0.52203    0.66823    1.000
    N4040    N        0.63684    0.54424    0.69640    1.000
    Si4041   Si       0.64492    0.70820    0.62492    1.000
    Si4042   Si       0.69493    0.74702    0.73238    1.000
    N4043    N        0.66017    0.67927    0.65377    1.000
    N4044    N        0.65925    0.74666    0.63776    1.000
    Si4045   Si       0.65659    0.65236    0.72008    1.000
    Si4046   Si       0.69672    0.75299    0.65663    1.000
    N4047    N        0.67172    0.60323    0.80953    1.000
    Si4048   Si       0.67185    0.55445    0.80556    1.000
    Si4049   Si       0.67748    0.59672    0.85265    1.000
    Si4050   Si       0.68512    0.60196    0.76415    1.000
    N4051    N        0.68786    0.55586    0.84624    1.000
    N4052    N        0.64061    0.59050    0.74834    1.000
    N4053    N        0.66511    0.51304    0.79447    1.000
    Si4054   Si       0.64910    0.64073    0.80000    1.000
    N4055    N        0.66188    0.67704    0.82168    1.000
    N4056    N        0.66907    0.64549    0.76111    1.000
    N4057    N        0.66945    0.72270    0.75961    1.000
    Si4058   Si       0.68310    0.66816    0.86161    1.000
    Si4059   Si       0.68728    0.70187    0.79316    1.000
    Si4060   Si       0.66092    0.52287    0.95534    1.000
    N4061    N        0.68205    0.60012    0.91843    1.000
    Si4062   Si       0.64154    0.58380    0.91166    1.000
    N4063    N        0.68988    0.66303    0.94462    1.000
    Si4064   Si       0.63940    0.73891    0.99595    1.000
    N4065    N        0.64979    0.66482    0.89029    1.000
    Si4066   Si       0.66365    0.63883    0.92240    1.000
    Si4067   Si       0.68682    0.66964    0.98803    1.000
    Si4068   Si       0.65125    0.85220    0.06322    1.000
    N4069    N        0.66268    0.76375    0.09960    1.000
    N4070    N        0.69399    0.85017    0.07099    1.000
    N4071    N        0.65261    0.88216    0.02927    1.000
    Si4072   Si       0.63711    0.86293    0.99203    1.000
    N4073    N        0.69700    0.93146    0.99895    1.000
    Si4074   Si       0.64578    0.92345    0.04852    1.000
    N4075    N        0.67357    0.91852    0.08106    1.000
    N4076    N        0.65267    0.96661    0.03987    1.000
    Si4077   Si       0.68918    0.97105    0.01712    1.000
    Si4078   Si       0.66354    0.92923    0.12184    1.000
    N4079    N        0.64848    0.86643    0.20581    1.000
    N4080    N        0.68310    0.79259    0.16250    1.000
    Si4081   Si       0.65106    0.78385    0.13438    1.000
    N4082    N        0.64433    0.80408    0.23224    1.000
    Si4083   Si       0.67824    0.79433    0.20515    1.000
    Si4084   Si       0.68741    0.85964    0.22470    1.000
    Si4085   Si       0.65489    0.97599    0.23878    1.000
    Si4086   Si       0.67144    0.96904    0.17397    1.000
    N4087    N        0.64725    0.93561    0.18978    1.000
    N4088    N        0.68973    0.98315    0.21082    1.000
    N4089    N        0.64800    0.00322    0.15732    1.000
    Si4090   Si       0.66701    0.89891    0.18385    1.000
    N4091    N        0.69439    0.94989    0.14349    1.000
    N4092    N        0.66163    0.89009    0.14237    1.000
    Si4093   Si       0.66995    0.85920    0.30241    1.000
    N4094    N        0.67012    0.81510    0.30006    1.000
    N4095    N        0.67347    0.78931    0.36482    1.000
    N4096    N        0.68417    0.87499    0.26543    1.000
    Si4097   Si       0.64222    0.79298    0.27390    1.000
    N4098    N        0.69066    0.86568    0.33875    1.000
    N4099    N        0.65231    0.97300    0.32984    1.000
    N4100    N        0.66210    0.94074    0.26144    1.000
    Si4101   Si       0.68034    0.96287    0.35978    1.000
    Si4102   Si       0.67369    0.00325    0.30152    1.000
    N4103    N        0.65807    0.01151    0.26306    1.000
    Si4104   Si       0.64715    0.82538    0.37392    1.000
    N4105    N        0.68101    0.84007    0.40171    1.000
    Si4106   Si       0.67244    0.85330    0.44281    1.000
    Si4107   Si       0.64242    0.76795    0.48102    1.000
    N4108    N        0.67616    0.75851    0.45714    1.000
    Si4109   Si       0.67257    0.93482    0.45201    1.000
    N4110    N        0.68311    0.99975    0.38426    1.000
    Si4111   Si       0.68431    0.88388    0.38165    1.000
    N4112    N        0.66605    0.92647    0.37703    1.000
    N4113    N        0.68304    0.97886    0.45467    1.000
    N4114    N        0.68054    0.89550    0.43085    1.000
    N4115    N        0.68723    0.92119    0.48986    1.000
    Si4116   Si       0.67731    0.82311    0.57343    1.000
    N4117    N        0.67709    0.86465    0.58646    1.000
    N4118    N        0.66112    0.86316    0.51407    1.000
    N4119    N        0.68706    0.79153    0.60292    1.000
    Si4120   Si       0.64366    0.77913    0.60792    1.000
    N4121    N        0.63750    0.80178    0.50557    1.000
    Si4122   Si       0.64794    0.95152    0.58295    1.000
    Si4123   Si       0.65349    0.90548    0.51527    1.000
    N4124    N        0.64939    0.91949    0.55491    1.000
    N4125    N        0.68522    0.96276    0.60150    1.000
    Si4126   Si       0.64163    0.89059    0.58641    1.000
    N4127    N        0.66572    0.87067    0.72528    1.000
    N4128    N        0.67360    0.78693    0.72657    1.000
    N4129    N        0.66912    0.86934    0.65267    1.000
    Si4130   Si       0.69457    0.98945    0.63823    1.000
    Si4131   Si       0.66200    0.89162    0.68776    1.000
    Si4132   Si       0.67204    0.96002    0.70100    1.000
    N4133    N        0.64378    0.95741    0.73338    1.000
    N4134    N        0.66029    0.98286    0.66516    1.000
    N4135    N        0.65893    0.79248    0.79405    1.000
    Si4136   Si       0.67331    0.83271    0.80355    1.000
    N4137    N        0.65824    0.84775    0.84583    1.000
    N4138    N        0.65120    0.86795    0.78874    1.000
    Si4139   Si       0.66754    0.76386    0.82660    1.000
    Si4140   Si       0.64034    0.78940    0.75404    1.000
    N4141    N        0.67864    0.78575    0.86493    1.000
    N4142    N        0.66493    0.96262    0.80372    1.000
    Si4143   Si       0.66475    0.93404    0.83820    1.000
    Si4144   Si       0.63908    0.97965    0.77028    1.000
    Si4145   Si       0.68982    0.99609    0.79904    1.000
    Si4146   Si       0.64575    0.81699    0.87450    1.000
    Si4147   Si       0.67395    0.79563    0.97402    1.000
    Si4148   Si       0.66414    0.85534    0.92743    1.000
    N4149    N        0.68619    0.81982    0.93930    1.000
    N4150    N        0.65252    0.76244    0.95721    1.000
    N4151    N        0.65810    0.88219    0.95977    1.000
    N4152    N        0.69167    0.87493    0.90098    1.000
    N4153    N        0.64147    0.81992    0.99024    1.000
    Si4154   Si       0.67421    0.92258    0.96365    1.000
    N4155    N        0.68091    0.00522    0.98954    1.000
    Si4156   Si       0.65684    0.99200    0.95724    1.000
    N4157    N        0.64355    0.95164    0.96705    1.000
    Si4158   Si       0.68576    0.96288    0.89907    1.000
    N4159    N        0.67999    0.00051    0.92010    1.000
    N4160    N        0.65077    0.95118    0.87674    1.000
    N4161    N        0.72133    0.11947    0.09159    1.000
    Si4162   Si       0.72837    0.03056    0.03656    1.000
    N4163    N        0.74858    0.05235    0.06792    1.000
    N4164    N        0.73897    0.05058    0.99983    1.000
    N4165    N        0.69609    0.14074    0.02700    1.000
    Si4166   Si       0.73760    0.13522    0.01492    1.000
    N4167    N        0.72169    0.23926    0.03357    1.000
    N4168    N        0.70876    0.20173    0.10236    1.000
    Si4169   Si       0.70339    0.23510    0.07455    1.000
    Si4170   Si       0.72690    0.21078    0.00002    1.000
    N4171    N        0.75121    0.17609    0.01327    1.000
    Si4172   Si       0.72624    0.12544    0.13363    1.000
    N4173    N        0.73954    0.08784    0.15297    1.000
    Si4174   Si       0.71600    0.05121    0.15630    1.000
    N4175    N        0.73470    0.01598    0.17400    1.000
    N4176    N        0.71208    0.04011    0.24288    1.000
    N4177    N        0.70649    0.14642    0.24310    1.000
    N4178    N        0.74103    0.20668    0.24581    1.000
    Si4179   Si       0.72535    0.17688    0.21865    1.000
    Si4180   Si       0.73648    0.19686    0.13652    1.000
    Si4181   Si       0.70333    0.24153    0.18891    1.000
    N4182    N        0.71342    0.20200    0.17361    1.000
    Si4183   Si       0.72359    0.09811    0.34475    1.000
    N4184    N        0.70787    0.10077    0.30498    1.000
    Si4185   Si       0.74163    0.01887    0.27084    1.000
    Si4186   Si       0.72523    0.13200    0.27934    1.000
    N4187    N        0.72039    0.13355    0.36733    1.000
    N4188    N        0.70010    0.22974    0.29686    1.000
    Si4189   Si       0.73780    0.20859    0.28943    1.000
    N4190    N        0.73212    0.16716    0.30365    1.000
    Si4191   Si       0.73312    0.16906    0.34694    1.000
    N4192    N        0.70215    0.19836    0.36104    1.000
    N4193    N        0.70994    0.06591    0.37098    1.000
    Si4194   Si       0.73046    0.08215    0.47394    1.000
    N4195    N        0.73323    0.02418    0.42497    1.000
    N4196    N        0.73101    0.09036    0.43154    1.000
    Si4197   Si       0.73899    0.05908    0.40272    1.000
    Si4198   Si       0.73591    0.12618    0.40770    1.000
    N4199    N        0.72370    0.04031    0.48969    1.000
    Si4200   Si       0.75434    0.02005    0.46363    1.000
    N4201    N        0.71317    0.15620    0.42907    1.000
    N4202    N        0.70793    0.21846    0.43105    1.000
    Si4203   Si       0.74997    0.22613    0.43639    1.000
    Si4204   Si       0.70954    0.05652    0.59328    1.000
    N4205    N        0.74540    0.07805    0.59880    1.000
    N4206    N        0.71051    0.01650    0.60729    1.000
    Si4207   Si       0.70092    0.02834    0.52352    1.000
    N4208    N        0.72837    0.14062    0.53763    1.000
    Si4209   Si       0.73642    0.17166    0.56683    1.000
    N4210    N        0.70043    0.19095    0.58124    1.000
    Si4211   Si       0.70276    0.23301    0.56730    1.000
    N4212    N        0.73674    0.25607    0.57831    1.000
    Si4213   Si       0.71828    0.08393    0.70611    1.000
    N4214    N        0.70419    0.12622    0.70781    1.000
    Si4215   Si       0.71203    0.01952    0.74470    1.000
    N4216    N        0.74868    0.02419    0.72208    1.000
    N4217    N        0.69113    0.06161    0.67929    1.000
    N4218    N        0.69421    0.25158    0.70453    1.000
    Si4219   Si       0.71952    0.15173    0.73972    1.000
    Si4220   Si       0.73101    0.23191    0.72073    1.000
    N4221    N        0.71063    0.19412    0.73187    1.000
    N4222    N        0.70959    0.16215    0.64718    1.000
    Si4223   Si       0.75358    0.17118    0.63657    1.000
    Si4224   Si       0.72961    0.08002    0.78474    1.000
    N4225    N        0.70760    0.06548    0.74865    1.000
    N4226    N        0.75514    0.14186    0.85675    1.000
    N4227    N        0.70378    0.13979    0.78059    1.000
    Si4228   Si       0.73225    0.14332    0.81548    1.000
    Si4229   Si       0.72783    0.24351    0.84772    1.000
    N4230    N        0.69981    0.16253    0.84401    1.000
    N4231    N        0.73596    0.03157    0.89021    1.000
    N4232    N        0.73331    0.11792    0.97633    1.000
    N4233    N        0.71401    0.06699    0.93650    1.000
    Si4234   Si       0.71403    0.07838    0.97804    1.000
    Si4235   Si       0.74905    0.13349    0.93915    1.000
    N4236    N        0.69248    0.25428    0.92926    1.000
    N4237    N        0.71943    0.15372    0.91551    1.000
    N4238    N        0.74299    0.22429    0.96181    1.000
    Si4239   Si       0.72980    0.17114    0.87648    1.000
    N4240    N        0.74331    0.21216    0.87104    1.000
    N4241    N        0.72878    0.33485    0.09859    1.000
    Si4242   Si       0.72965    0.28434    0.02323    1.000
    N4243    N        0.71901    0.26813    0.09530    1.000
    N4244    N        0.74752    0.37097    0.03641    1.000
    Si4245   Si       0.69859    0.30528    0.08582    1.000
    N4246    N        0.69650    0.30515    0.04019    1.000
    Si4247   Si       0.69486    0.49448    0.08052    1.000
    Si4248   Si       0.72926    0.48173    0.02441    1.000
    Si4249   Si       0.73620    0.40695    0.00943    1.000
    N4250    N        0.73107    0.39696    0.10124    1.000
    Si4251   Si       0.73302    0.43528    0.08218    1.000
    N4252    N        0.74147    0.44005    0.03769    1.000
    Si4253   Si       0.70883    0.36769    0.12161    1.000
    Si4254   Si       0.72018    0.29678    0.20044    1.000
    N4255    N        0.71167    0.36633    0.16563    1.000
    N4256    N        0.72422    0.27071    0.16528    1.000
    Si4257   Si       0.74706    0.26856    0.12823    1.000
    Si4258   Si       0.74947    0.36161    0.18606    1.000
    N4259    N        0.71601    0.26074    0.22836    1.000
    N4260    N        0.69462    0.44837    0.17228    1.000
    Si4261   Si       0.73562    0.41196    0.24107    1.000
    N4262    N        0.69978    0.50686    0.20826    1.000
    N4263    N        0.74760    0.45361    0.23195    1.000
    N4264    N        0.70305    0.50118    0.12378    1.000
    Si4265   Si       0.72404    0.47002    0.19846    1.000
    N4266    N        0.72847    0.29722    0.34028    1.000
    N4267    N        0.73816    0.33287    0.27326    1.000
    N4268    N        0.75370    0.36221    0.33930    1.000
    Si4269   Si       0.75209    0.32635    0.31717    1.000
    Si4270   Si       0.69777    0.32819    0.25668    1.000
    N4271    N        0.70593    0.41545    0.34933    1.000
    N4272    N        0.72643    0.40172    0.28216    1.000
    N4273    N        0.72356    0.47918    0.32448    1.000
    Si4274   Si       0.73948    0.39792    0.32306    1.000
    N4275    N        0.74714    0.29917    0.46351    1.000
    Si4276   Si       0.73765    0.28870    0.38462    1.000
    Si4277   Si       0.70612    0.29671    0.44729    1.000
    N4278    N        0.69819    0.28700    0.40505    1.000
    N4279    N        0.73533    0.36425    0.49832    1.000
    Si4280   Si       0.75347    0.50306    0.40222    1.000
    N4281    N        0.73586    0.39315    0.40230    1.000
    Si4282   Si       0.69603    0.40692    0.39156    1.000
    Si4283   Si       0.70146    0.39243    0.49839    1.000
    Si4284   Si       0.73297    0.35842    0.59539    1.000
    Si4285   Si       0.74277    0.29130    0.55372    1.000
    N4286    N        0.70638    0.30087    0.53121    1.000
    Si4287   Si       0.70319    0.33303    0.50236    1.000
    N4288    N        0.70271    0.38362    0.57688    1.000
    Si4289   Si       0.70245    0.42559    0.56256    1.000
    N4290    N        0.73174    0.50225    0.60836    1.000
    N4291    N        0.73585    0.44616    0.58019    1.000
    N4292    N        0.70880    0.49287    0.54255    1.000
    Si4293   Si       0.71645    0.46650    0.50893    1.000
    N4294    N        0.71002    0.42663    0.52047    1.000
    Si4295   Si       0.74374    0.48946    0.56852    1.000
    N4296    N        0.71568    0.33280    0.62613    1.000
    Si4297   Si       0.70440    0.34236    0.71187    1.000
    Si4298   Si       0.74374    0.31041    0.65116    1.000
    N4299    N        0.73484    0.31835    0.69395    1.000
    N4300    N        0.73814    0.26731    0.65416    1.000
    N4301    N        0.75013    0.26246    0.74535    1.000
    N4302    N        0.69432    0.44626    0.64501    1.000
    N4303    N        0.72976    0.44414    0.71129    1.000
    Si4304   Si       0.72840    0.46077    0.62376    1.000
    Si4305   Si       0.72935    0.48644    0.71228    1.000
    Si4306   Si       0.69888    0.42553    0.68533    1.000
    N4307    N        0.72573    0.29876    0.80527    1.000
    Si4308   Si       0.71166    0.30818    0.84642    1.000
    N4309    N        0.72108    0.34930    0.85686    1.000
    N4310    N        0.72099    0.34310    0.75263    1.000
    Si4311   Si       0.69487    0.32004    0.78122    1.000
    N4312    N        0.71998    0.46964    0.81288    1.000
    Si4313   Si       0.73724    0.48196    0.85029    1.000
    Si4314   Si       0.71055    0.43049    0.79432    1.000
    N4315    N        0.72766    0.50414    0.75175    1.000
    N4316    N        0.74797    0.41542    0.78008    1.000
    Si4317   Si       0.69779    0.48970    0.77987    1.000
    N4318    N        0.73624    0.28123    0.86836    1.000
    N4319    N        0.72222    0.28890    0.98123    1.000
    N4320    N        0.71518    0.31686    0.92271    1.000
    Si4321   Si       0.71507    0.32979    0.96559    1.000
    Si4322   Si       0.73318    0.26351    0.94681    1.000
    Si4323   Si       0.75183    0.37281    0.87733    1.000
    N4324    N        0.75235    0.35101    0.97123    1.000
    Si4325   Si       0.73279    0.50588    0.95199    1.000
    N4326    N        0.72725    0.46548    0.93677    1.000
    N4327    N        0.74166    0.39765    0.91431    1.000
    N4328    N        0.70909    0.40992    0.97531    1.000
    Si4329   Si       0.71229    0.42485    0.93284    1.000
    N4330    N        0.70893    0.49649    0.88100    1.000
    Si4331   Si       0.71386    0.60956    0.07245    1.000
    N4332    N        0.73188    0.59258    0.10841    1.000
    N4333    N        0.74098    0.60701    0.03935    1.000
    Si4334   Si       0.72761    0.61623    0.99820    1.000
    N4335    N        0.73513    0.50441    0.06261    1.000
    N4336    N        0.71613    0.69395    0.00868    1.000
    N4337    N        0.71285    0.72363    0.06805    1.000
    N4338    N        0.69659    0.64737    0.08675    1.000
    Si4339   Si       0.74152    0.75342    0.08411    1.000
    Si4340   Si       0.70729    0.58584    0.14435    1.000
    N4341    N        0.73176    0.55347    0.16680    1.000
    Si4342   Si       0.71166    0.55144    0.20791    1.000
    Si4343   Si       0.73673    0.51543    0.14624    1.000
    N4344    N        0.70166    0.62782    0.15745    1.000
    Si4345   Si       0.72929    0.71281    0.14431    1.000
    N4346    N        0.73331    0.75374    0.12672    1.000
    Si4347   Si       0.72803    0.74530    0.20700    1.000
    N4348    N        0.73225    0.70742    0.18688    1.000
    Si4349   Si       0.70971    0.65930    0.12611    1.000
    Si4350   Si       0.74021    0.66775    0.20464    1.000
    N4351    N        0.74890    0.67877    0.12735    1.000
    N4352    N        0.70589    0.64565    0.22010    1.000
    N4353    N        0.72648    0.55383    0.34073    1.000
    Si4354   Si       0.72095    0.52151    0.31177    1.000
    Si4355   Si       0.74492    0.56032    0.26187    1.000
    N4356    N        0.70309    0.56243    0.25393    1.000
    N4357    N        0.73531    0.62844    0.34303    1.000
    Si4358   Si       0.75379    0.58870    0.33386    1.000
    N4359    N        0.75470    0.52445    0.28501    1.000
    N4360    N        0.70914    0.70342    0.27592    1.000
    N4361    N        0.73287    0.69584    0.36116    1.000
    Si4362   Si       0.74204    0.73230    0.33622    1.000
    Si4363   Si       0.75068    0.70849    0.26666    1.000
    N4364    N        0.71490    0.75796    0.31654    1.000
    Si4365   Si       0.71252    0.55301    0.38224    1.000
    Si4366   Si       0.73283    0.61410    0.42603    1.000
    N4367    N        0.72581    0.53584    0.48944    1.000
    N4368    N        0.73962    0.60265    0.46619    1.000
    N4369    N        0.73935    0.57599    0.40562    1.000
    N4370    N        0.71173    0.51102    0.39369    1.000
    Si4371   Si       0.74408    0.73701    0.47572    1.000
    N4372    N        0.74477    0.72016    0.43523    1.000
    Si4373   Si       0.73072    0.74415    0.40263    1.000
    N4374    N        0.71865    0.56339    0.57927    1.000
    Si4375   Si       0.71442    0.54089    0.61459    1.000
    Si4376   Si       0.74338    0.60341    0.57117    1.000
    N4377    N        0.70196    0.62445    0.56713    1.000
    Si4378   Si       0.72735    0.58006    0.50163    1.000
    N4379    N        0.71535    0.68964    0.57688    1.000
    Si4380   Si       0.73237    0.71292    0.54577    1.000
    Si4381   Si       0.73900    0.69618    0.61403    1.000
    N4382    N        0.71850    0.71460    0.50397    1.000
    N4383    N        0.73412    0.75334    0.55902    1.000
    N4384    N        0.74198    0.56063    0.71688    1.000
    N4385    N        0.73175    0.56113    0.64687    1.000
    Si4386   Si       0.73338    0.53773    0.68249    1.000
    Si4387   Si       0.75096    0.60238    0.71495    1.000
    N4388    N        0.69934    0.50946    0.68747    1.000
    N4389    N        0.72111    0.61488    0.74495    1.000
    N4390    N        0.73095    0.67569    0.65080    1.000
    N4391    N        0.72328    0.73730    0.62695    1.000
    Si4392   Si       0.72118    0.65928    0.74117    1.000
    N4393    N        0.69504    0.66743    0.70883    1.000
    N4394    N        0.69500    0.72994    0.69193    1.000
    Si4395   Si       0.69720    0.68919    0.67313    1.000
    Si4396   Si       0.73789    0.54678    0.75732    1.000
    N4397    N        0.70370    0.62986    0.85775    1.000
    N4398    N        0.70207    0.56222    0.77475    1.000
    Si4399   Si       0.72373    0.53865    0.86758    1.000
    N4400    N        0.75092    0.52374    0.83923    1.000
    Si4401   Si       0.72755    0.72360    0.85104    1.000
    N4402    N        0.72248    0.68586    0.77456    1.000
    N4403    N        0.69802    0.73368    0.82141    1.000
    Si4404   Si       0.74312    0.61583    0.87731    1.000
    N4405    N        0.70130    0.53569    0.94719    1.000
    N4406    N        0.73500    0.57318    0.89219    1.000
    Si4407   Si       0.71344    0.57375    0.93086    1.000
    N4408    N        0.73718    0.59180    0.96337    1.000
    N4409    N        0.74630    0.50894    0.99354    1.000
    N4410    N        0.71197    0.69406    0.88162    1.000
    Si4411   Si       0.72617    0.67809    0.92002    1.000
    N4412    N        0.74558    0.70387    0.94824    1.000
    N4413    N        0.74916    0.64050    0.91226    1.000
    Si4414   Si       0.75615    0.69068    0.98981    1.000
    N4415    N        0.75549    0.64667    0.98339    1.000
    Si4416   Si       0.72897    0.82632    0.08063    1.000
    N4417    N        0.72790    0.78849    0.06001    1.000
    Si4418   Si       0.72279    0.77102    0.01854    1.000
    N4419    N        0.72712    0.98507    0.03487    1.000
    N4420    N        0.73514    0.90058    0.04424    1.000
    Si4421   Si       0.70827    0.89234    0.07586    1.000
    N4422    N        0.73522    0.89556    0.11225    1.000
    Si4423   Si       0.73600    0.91014    0.00061    1.000
    N4424    N        0.73207    0.82408    0.12286    1.000
    N4425    N        0.74352    0.78247    0.18746    1.000
    Si4426   Si       0.72564    0.78997    0.14966    1.000
    N4427    N        0.70649    0.82327    0.22283    1.000
    Si4428   Si       0.74839    0.81920    0.20934    1.000
    N4429    N        0.74943    0.85406    0.18176    1.000
    Si4430   Si       0.72466    0.00827    0.21466    1.000
    Si4431   Si       0.73566    0.93575    0.13431    1.000
    Si4432   Si       0.74615    0.89223    0.19998    1.000
    N4433    N        0.70389    0.89973    0.21060    1.000
    N4434    N        0.73087    0.81605    0.35251    1.000
    Si4435   Si       0.73753    0.86038    0.34233    1.000
    N4436    N        0.75089    0.85873    0.29893    1.000
    Si4437   Si       0.69748    0.79547    0.32626    1.000
    N4438    N        0.72933    0.92635    0.27479    1.000
    N4439    N        0.71468    0.99338    0.29165    1.000
    N4440    N        0.71994    0.95731    0.34385    1.000
    Si4441   Si       0.73631    0.95840    0.30361    1.000
    Si4442   Si       0.69516    0.91567    0.25339    1.000
    Si4443   Si       0.70723    0.78873    0.45733    1.000
    N4444    N        0.73511    0.77672    0.48876    1.000
    Si4445   Si       0.70783    0.80940    0.38847    1.000
    N4446    N        0.72605    0.78483    0.41891    1.000
    N4447    N        0.69633    0.82818    0.46940    1.000
    N4448    N        0.73479    0.95851    0.41203    1.000
    Si4449   Si       0.70642    0.99008    0.41907    1.000
    N4450    N        0.72844    0.88654    0.38261    1.000
    Si4451   Si       0.75188    0.96427    0.37184    1.000
    N4452    N        0.75453    0.97888    0.47652    1.000
    N4453    N        0.75215    0.90691    0.46028    1.000
    Si4454   Si       0.73496    0.78671    0.52995    1.000
    N4455    N        0.73540    0.86532    0.51348    1.000
    Si4456   Si       0.72469    0.76741    0.59786    1.000
    N4457    N        0.70334    0.81316    0.54132    1.000
    Si4458   Si       0.69855    0.84270    0.50936    1.000
    Si4459   Si       0.71800    0.98331    0.57834    1.000
    N4460    N        0.71928    0.99156    0.53711    1.000
    Si4461   Si       0.72855    0.90456    0.49733    1.000
    Si4462   Si       0.75489    0.97209    0.51885    1.000
    Si4463   Si       0.70076    0.87536    0.62367    1.000
    N4464    N        0.73216    0.84682    0.63519    1.000
    N4465    N        0.72573    0.83793    0.71958    1.000
    N4466    N        0.72188    0.78673    0.67141    1.000
    Si4467   Si       0.71481    0.79776    0.71119    1.000
    N4468    N        0.73219    0.76787    0.74006    1.000
    Si4469   Si       0.75177    0.81032    0.64895    1.000
    N4470    N        0.72648    0.91010    0.63000    1.000
    Si4471   Si       0.74329    0.98704    0.69748    1.000
    Si4472   Si       0.73636    0.91835    0.71173    1.000
    Si4473   Si       0.75109    0.94742    0.62862    1.000
    N4474    N        0.73078    0.97439    0.65760    1.000
    N4475    N        0.70213    0.98795    0.71757    1.000
    N4476    N        0.69400    0.92233    0.69921    1.000
    N4477    N        0.72245    0.83261    0.84533    1.000
    N4478    N        0.70923    0.83839    0.78194    1.000
    Si4479   Si       0.74633    0.83029    0.80644    1.000
    N4480    N        0.74494    0.76178    0.85951    1.000
    Si4481   Si       0.69579    0.86586    0.85926    1.000
    Si4482   Si       0.70291    0.86388    0.74739    1.000
    Si4483   Si       0.73828    0.92586    0.85623    1.000
    N4484    N        0.69975    0.90718    0.84056    1.000
    N4485    N        0.72648    0.99263    0.77961    1.000
    Si4486   Si       0.73163    0.00271    0.85859    1.000
    N4487    N        0.73451    0.89678    0.74969    1.000
    Si4488   Si       0.72171    0.79672    0.86932    1.000
    N4489    N        0.74431    0.81134    0.90484    1.000
    Si4490   Si       0.72953    0.81920    0.94501    1.000
    N4491    N        0.72069    0.79471    0.98308    1.000
    N4492    N        0.74998    0.90336    0.89285    1.000
    N4493    N        0.73521    0.88734    0.96139    1.000
    N4494    N        0.71947    0.96354    0.87122    1.000
    Si4495   Si       0.72096    0.89926    0.92244    1.000
    N4496    N        0.69849    0.93459    0.92950    1.000
    N4497    N        0.78263    0.09604    0.10625    1.000
    N4498    N        0.76588    0.11214    0.03698    1.000
    Si4499   Si       0.80753    0.11032    0.02330    1.000
    N4500    N        0.78809    0.01198    0.01852    1.000
    Si4501   Si       0.75369    0.09273    0.07459    1.000
    Si4502   Si       0.79371    0.18707    0.01983    1.000
    Si4503   Si       0.79396    0.22337    0.09561    1.000
    N4504    N        0.80046    0.19258    0.06186    1.000
    Si4505   Si       0.78188    0.08110    0.14602    1.000
    N4506    N        0.79157    0.03987    0.14663    1.000
    N4507    N        0.80631    0.11172    0.16358    1.000
    N4508    N        0.76503    0.22756    0.12672    1.000
    N4509    N        0.76212    0.15741    0.20615    1.000
    Si4510   Si       0.79324    0.18951    0.20618    1.000
    Si4511   Si       0.78699    0.13209    0.23538    1.000
    N4512    N        0.79337    0.23321    0.20880    1.000
    Si4513   Si       0.79845    0.14884    0.14527    1.000
    Si4514   Si       0.75872    0.24576    0.23440    1.000
    N4515    N        0.75560    0.15742    0.13749    1.000
    N4516    N        0.80626    0.17098    0.24666    1.000
    Si4517   Si       0.77639    0.08402    0.29672    1.000
    N4518    N        0.76655    0.09878    0.33721    1.000
    N4519    N        0.76584    0.04251    0.29697    1.000
    N4520    N        0.76311    0.11447    0.26608    1.000
    Si4521   Si       0.78436    0.01266    0.32314    1.000
    N4522    N        0.76963    0.23142    0.30802    1.000
    Si4523   Si       0.79793    0.20874    0.33353    1.000
    N4524    N        0.77265    0.18246    0.35689    1.000
    Si4525   Si       0.79059    0.09915    0.37397    1.000
    Si4526   Si       0.80221    0.02546    0.38182    1.000
    N4527    N        0.78148    0.06150    0.39188    1.000
    N4528    N        0.79003    0.04651    0.46071    1.000
    Si4529   Si       0.79919    0.07756    0.48861    1.000
    N4530    N        0.77914    0.13238    0.39951    1.000
    N4531    N        0.76289    0.23037    0.47946    1.000
    Si4532   Si       0.79436    0.17265    0.39412    1.000
    N4533    N        0.78345    0.20278    0.42149    1.000
    Si4534   Si       0.80526    0.24317    0.40530    1.000
    Si4535   Si       0.77241    0.11022    0.59824    1.000
    N4536    N        0.79322    0.11252    0.55967    1.000
    Si4537   Si       0.76955    0.12811    0.52646    1.000
    N4538    N        0.76358    0.09885    0.49634    1.000
    Si4539   Si       0.77081    0.22792    0.58533    1.000
    Si4540   Si       0.78254    0.20305    0.50994    1.000
    N4541    N        0.76485    0.20052    0.55202    1.000
    N4542    N        0.78994    0.16087    0.50625    1.000
    N4543    N        0.75466    0.14866    0.60037    1.000
    N4544    N        0.79937    0.10395    0.63051    1.000
    Si4545   Si       0.78131    0.04170    0.69948    1.000
    Si4546   Si       0.78729    0.11425    0.67322    1.000
    N4547    N        0.75999    0.08145    0.69009    1.000
    N4548    N        0.76287    0.21615    0.69540    1.000
    Si4549   Si       0.77686    0.24111    0.66460    1.000
    N4550    N        0.76330    0.15182    0.73471    1.000
    N4551    N        0.77635    0.15511    0.67040    1.000
    N4552    N        0.76597    0.21176    0.62491    1.000
    Si4553   Si       0.78235    0.17788    0.70580    1.000
    Si4554   Si       0.78860    0.07663    0.80900    1.000
    N4555    N        0.79157    0.08322    0.85161    1.000
    N4556    N        0.76023    0.11034    0.79436    1.000
    N4557    N        0.76044    0.04873    0.79481    1.000
    Si4558   Si       0.76622    0.00494    0.79305    1.000
    Si4559   Si       0.77790    0.14331    0.77311    1.000
    Si4560   Si       0.78585    0.20492    0.80949    1.000
    N4561    N        0.80862    0.19648    0.84498    1.000
    N4562    N        0.75823    0.23955    0.81510    1.000
    N4563    N        0.75931    0.17298    0.79910    1.000
    Si4564   Si       0.78202    0.11591    0.87654    1.000
    N4565    N        0.78201    0.03523    0.94532    1.000
    N4566    N        0.76692    0.10157    0.91436    1.000
    Si4567   Si       0.78123    0.04306    0.99033    1.000
    N4568    N        0.80827    0.07721    0.99333    1.000
    Si4569   Si       0.75471    0.05969    0.92024    1.000
    N4570    N        0.80705    0.01566    0.88574    1.000
    N4571    N        0.78276    0.15796    0.95076    1.000
    Si4572   Si       0.78793    0.22308    0.87531    1.000
    Si4573   Si       0.77839    0.20110    0.95282    1.000
    N4574    N        0.80274    0.21407    0.98654    1.000
    N4575    N        0.79622    0.21248    0.91635    1.000
    Si4576   Si       0.77113    0.34414    0.01082    1.000
    N4577    N        0.76941    0.30272    0.02457    1.000
    N4578    N        0.79332    0.36978    0.08836    1.000
    Si4579   Si       0.80620    0.28560    0.03970    1.000
    Si4580   Si       0.80969    0.29352    0.10081    1.000
    N4581    N        0.79547    0.26031    0.07491    1.000
    N4582    N        0.81058    0.36018    0.01652    1.000
    Si4583   Si       0.75335    0.36535    0.07719    1.000
    N4584    N        0.76824    0.45509    0.09762    1.000
    Si4585   Si       0.76894    0.49744    0.08634    1.000
    N4586    N        0.79932    0.47825    0.01046    1.000
    Si4587   Si       0.80987    0.44805    0.11307    1.000
    N4588    N        0.81011    0.50117    0.07624    1.000
    N4589    N        0.77965    0.29537    0.13104    1.000
    N4590    N        0.78273    0.35781    0.15916    1.000
    Si4591   Si       0.78846    0.31513    0.16959    1.000
    Si4592   Si       0.80876    0.37085    0.12819    1.000
    N4593    N        0.75642    0.31948    0.20219    1.000
    Si4594   Si       0.80247    0.38097    0.23404    1.000
    N4595    N        0.76134    0.38558    0.21878    1.000
    Si4596   Si       0.76953    0.31859    0.24745    1.000
    Si4597   Si       0.78969    0.45453    0.24037    1.000
    N4598    N        0.75615    0.48905    0.17451    1.000
    Si4599   Si       0.79937    0.48761    0.17894    1.000
    N4600    N        0.81041    0.45298    0.20241    1.000
    N4601    N        0.79145    0.30830    0.31726    1.000
    N4602    N        0.77410    0.27745    0.25796    1.000
    Si4603   Si       0.79192    0.26818    0.29742    1.000
    N4604    N        0.80698    0.33944    0.24810    1.000
    N4605    N        0.80983    0.48655    0.26200    1.000
    N4606    N        0.77136    0.42780    0.32410    1.000
    N4607    N        0.79863    0.49130    0.33182    1.000
    N4608    N        0.79877    0.41688    0.25971    1.000
    Si4609   Si       0.76269    0.46692    0.33996    1.000
    Si4610   Si       0.80737    0.41898    0.30309    1.000
    N4611    N        0.75969    0.25605    0.40562    1.000
    Si4612   Si       0.76102    0.36341    0.38257    1.000
    Si4613   Si       0.78129    0.31301    0.43506    1.000
    N4614    N        0.79080    0.35422    0.44935    1.000
    Si4615   Si       0.77379    0.27159    0.48652    1.000
    N4616    N        0.80786    0.29023    0.46708    1.000
    Si4617   Si       0.77628    0.35848    0.49224    1.000
    N4618    N        0.75647    0.32374    0.40016    1.000
    Si4619   Si       0.81427    0.50001    0.37304    1.000
    Si4620   Si       0.76898    0.42314    0.39964    1.000
    Si4621   Si       0.80042    0.46623    0.44441    1.000
    Si4622   Si       0.80590    0.39564    0.44930    1.000
    N4623    N        0.76908    0.49781    0.44357    1.000
    N4624    N        0.79630    0.39144    0.38668    1.000
    N4625    N        0.78179    0.42893    0.43989    1.000
    N4626    N        0.76250    0.46176    0.38262    1.000
    Si4627   Si       0.76398    0.51148    0.48332    1.000
    N4628    N        0.79796    0.39725    0.49782    1.000
    N4629    N        0.77499    0.27894    0.52829    1.000
    Si4630   Si       0.79431    0.34236    0.60300    1.000
    N4631    N        0.80501    0.33909    0.51739    1.000
    N4632    N        0.77008    0.38109    0.60406    1.000
    Si4633   Si       0.81077    0.30440    0.54011    1.000
    N4634    N        0.75730    0.32673    0.57369    1.000
    Si4635   Si       0.77653    0.42271    0.59239    1.000
    Si4636   Si       0.78900    0.44099    0.51096    1.000
    N4637    N        0.79852    0.43475    0.55383    1.000
    N4638    N        0.75962    0.47049    0.50345    1.000
    N4639    N        0.77988    0.50878    0.55460    1.000
    N4640    N        0.78250    0.31826    0.63565    1.000
    N4641    N        0.79037    0.28037    0.68561    1.000
    Si4642   Si       0.76201    0.29297    0.71623    1.000
    N4643    N        0.78628    0.32157    0.73725    1.000
    Si4644   Si       0.80595    0.44977    0.64541    1.000
    N4645    N        0.76607    0.44481    0.63316    1.000
    Si4646   Si       0.80800    0.41138    0.71382    1.000
    N4647    N        0.77241    0.38736    0.72383    1.000
    N4648    N        0.76188    0.50669    0.68615    1.000
    N4649    N        0.79388    0.44890    0.73310    1.000
    Si4650   Si       0.75592    0.42538    0.74040    1.000
    N4651    N        0.78571    0.36118    0.79000    1.000
    N4652    N        0.79668    0.28857    0.79209    1.000
    Si4653   Si       0.76410    0.35463    0.75251    1.000
    Si4654   Si       0.75516    0.27172    0.78727    1.000
    N4655    N        0.77102    0.39900    0.84921    1.000
    Si4656   Si       0.77935    0.39975    0.80744    1.000
    Si4657   Si       0.79844    0.43297    0.85885    1.000
    N4658    N        0.80363    0.49326    0.79073    1.000
    N4659    N        0.81050    0.43077    0.81553    1.000
    N4660    N        0.77797    0.33960    0.89476    1.000
    N4661    N        0.76990    0.27803    0.92741    1.000
    Si4662   Si       0.75123    0.30726    0.90085    1.000
    N4663    N        0.77200    0.41168    0.98262    1.000
    Si4664   Si       0.76838    0.38291    0.94712    1.000
    Si4665   Si       0.76719    0.47204    0.91467    1.000
    Si4666   Si       0.79922    0.44389    0.98327    1.000
    N4667    N        0.79805    0.45895    0.94137    1.000
    N4668    N        0.76607    0.45956    0.87434    1.000
    Si4669   Si       0.78174    0.59053    0.04308    1.000
    N4670    N        0.79823    0.57948    0.08276    1.000
    N4671    N        0.79446    0.56300    0.01157    1.000
    Si4672   Si       0.77034    0.57252    0.11381    1.000
    N4673    N        0.80574    0.62258    0.02793    1.000
    N4674    N        0.77045    0.52879    0.11878    1.000
    N4675    N        0.78457    0.74664    0.08074    1.000
    N4676    N        0.78397    0.69386    0.02326    1.000
    Si4677   Si       0.78992    0.73609    0.03791    1.000
    N4678    N        0.76574    0.75804    0.00983    1.000
    Si4679   Si       0.81158    0.74502    0.11888    1.000
    N4680    N        0.80738    0.62117    0.24818    1.000
    N4681    N        0.78719    0.58705    0.15291    1.000
    Si4682   Si       0.77526    0.55730    0.18267    1.000
    N4683    N        0.80796    0.52905    0.18771    1.000
    Si4684   Si       0.80859    0.62476    0.16596    1.000
    N4685    N        0.75734    0.56259    0.22113    1.000
    N4686    N        0.78155    0.65410    0.18524    1.000
    N4687    N        0.76172    0.67472    0.24253    1.000
    N4688    N        0.75638    0.74245    0.23988    1.000
    N4689    N        0.79962    0.71790    0.14894    1.000
    Si4690   Si       0.78679    0.67689    0.14624    1.000
    Si4691   Si       0.80081    0.65875    0.22792    1.000
    N4692    N        0.78871    0.59381    0.36212    1.000
    Si4693   Si       0.80231    0.59597    0.28274    1.000
    Si4694   Si       0.79743    0.51339    0.29315    1.000
    N4695    N        0.75969    0.59007    0.28853    1.000
    Si4696   Si       0.81275    0.62602    0.35019    1.000
    N4697    N        0.81564    0.55488    0.29336    1.000
    N4698    N        0.76821    0.71477    0.30709    1.000
    N4699    N        0.79865    0.66937    0.35353    1.000
    Si4700   Si       0.80628    0.69997    0.32176    1.000
    N4701    N        0.75767    0.75692    0.36949    1.000
    Si4702   Si       0.75621    0.65984    0.36557    1.000
    Si4703   Si       0.77151    0.62419    0.48633    1.000
    N4704    N        0.78448    0.52826    0.38725    1.000
    Si4705   Si       0.78138    0.56946    0.39877    1.000
    N4706    N        0.79924    0.53529    0.49128    1.000
    N4707    N        0.80707    0.60098    0.49031    1.000
    N4708    N        0.80960    0.68648    0.42431    1.000
    N4709    N        0.76626    0.66493    0.47580    1.000
    N4710    N        0.78555    0.73322    0.48710    1.000
    Si4711   Si       0.76784    0.68294    0.43524    1.000
    N4712    N        0.75632    0.64751    0.40881    1.000
    N4713    N        0.77099    0.60489    0.60612    1.000
    Si4714   Si       0.80041    0.59348    0.53319    1.000
    N4715    N        0.75541    0.59744    0.52971    1.000
    N4716    N        0.80868    0.62908    0.55612    1.000
    Si4717   Si       0.81465    0.52387    0.53203    1.000
    Si4718   Si       0.79929    0.71323    0.56996    1.000
    N4719    N        0.78011    0.69477    0.60519    1.000
    N4720    N        0.77295    0.69648    0.54123    1.000
    Si4721   Si       0.78870    0.69268    0.50131    1.000
    N4722    N        0.81486    0.75392    0.57384    1.000
    N4723    N        0.78989    0.60472    0.73436    1.000
    Si4724   Si       0.76567    0.58710    0.64508    1.000
    N4725    N        0.79602    0.55996    0.66245    1.000
    Si4726   Si       0.80294    0.52014    0.67965    1.000
    N4727    N        0.75498    0.61762    0.67461    1.000
    N4728    N        0.76092    0.66298    0.71981    1.000
    N4729    N        0.80122    0.67742    0.67027    1.000
    Si4730   Si       0.76231    0.65967    0.67607    1.000
    Si4731   Si       0.78398    0.52784    0.81161    1.000
    N4732    N        0.77776    0.60976    0.85127    1.000
    N4733    N        0.77668    0.55277    0.77762    1.000
    Si4734   Si       0.80614    0.57646    0.86199    1.000
    Si4735   Si       0.79666    0.63438    0.82059    1.000
    Si4736   Si       0.80997    0.57736    0.75962    1.000
    Si4737   Si       0.76406    0.69177    0.78786    1.000
    N4738    N        0.78453    0.65467    0.78394    1.000
    N4739    N        0.78374    0.72770    0.76600    1.000
    Si4740   Si       0.79968    0.70377    0.85110    1.000
    N4741    N        0.75998    0.70102    0.83054    1.000
    N4742    N        0.81279    0.73920    0.83125    1.000
    Si4743   Si       0.79402    0.64558    0.74228    1.000
    Si4744   Si       0.76445    0.62179    0.94709    1.000
    N4745    N        0.76703    0.51642    0.92571    1.000
    N4746    N        0.80666    0.61005    0.95564    1.000
    Si4747   Si       0.80797    0.53085    0.92321    1.000
    N4748    N        0.81126    0.56920    0.90424    1.000
    Si4749   Si       0.79161    0.52082    0.99585    1.000
    Si4750   Si       0.77886    0.72532    0.93344    1.000
    N4751    N        0.79705    0.70770    0.89431    1.000
    N4752    N        0.80866    0.70454    0.95722    1.000
    N4753    N        0.76752    0.84764    0.07391    1.000
    Si4754   Si       0.80864    0.85109    0.09174    1.000
    N4755    N        0.78935    0.87724    0.00979    1.000
    Si4756   Si       0.77625    0.88386    0.05129    1.000
    N4757    N        0.79011    0.96108    0.05631    1.000
    Si4758   Si       0.79112    0.96710    0.09824    1.000
    Si4759   Si       0.76748    0.97348    0.02157    1.000
    N4760    N        0.81426    0.88938    0.07263    1.000
    N4761    N        0.79615    0.85737    0.13303    1.000
    Si4762   Si       0.79095    0.76908    0.23794    1.000
    N4763    N        0.77531    0.81285    0.24476    1.000
    Si4764   Si       0.75300    0.86109    0.13617    1.000
    N4765    N        0.75495    0.92339    0.17267    1.000
    N4766    N        0.75727    0.97407    0.12425    1.000
    Si4767   Si       0.76997    0.00172    0.15673    1.000
    N4768    N        0.80522    0.93470    0.12561    1.000
    Si4769   Si       0.79606    0.93672    0.16821    1.000
    N4770    N        0.76230    0.00048    0.23738    1.000
    N4771    N        0.77231    0.89220    0.23565    1.000
    N4772    N        0.79565    0.97778    0.18280    1.000
    Si4773   Si       0.80004    0.98679    0.22462    1.000
    N4774    N        0.78342    0.79535    0.31220    1.000
    Si4775   Si       0.78157    0.82769    0.28452    1.000
    Si4776   Si       0.77005    0.79497    0.35369    1.000
    N4777    N        0.78096    0.86510    0.35658    1.000
    Si4778   Si       0.80845    0.87825    0.32469    1.000
    Si4779   Si       0.76010    0.89591    0.27627    1.000
    N4780    N        0.77601    0.97621    0.30452    1.000
    N4781    N        0.79625    0.91107    0.29857    1.000
    N4782    N        0.76842    0.00106    0.36286    1.000
    Si4783   Si       0.80828    0.95148    0.28739    1.000
    N4784    N        0.78079    0.93262    0.36955    1.000
    N4785    N        0.80589    0.80646    0.37534    1.000
    N4786    N        0.79259    0.84940    0.48113    1.000
    N4787    N        0.80296    0.78560    0.44150    1.000
    N4788    N        0.79402    0.87614    0.41684    1.000
    N4789    N        0.80093    0.93954    0.43677    1.000
    Si4790   Si       0.75902    0.94678    0.44578    1.000
    Si4791   Si       0.79273    0.89103    0.46067    1.000
    Si4792   Si       0.76979    0.89504    0.38713    1.000
    Si4793   Si       0.79073    0.78940    0.57732    1.000
    N4794    N        0.77162    0.80780    0.54191    1.000
    Si4795   Si       0.77484    0.84657    0.52081    1.000
    N4796    N        0.79586    0.87252    0.55007    1.000
    N4797    N        0.76126    0.78917    0.60930    1.000
    N4798    N        0.78976    0.99237    0.53621    1.000
    Si4799   Si       0.79464    0.97180    0.57460    1.000
    Si4800   Si       0.79605    0.91184    0.53184    1.000
    N4801    N        0.75636    0.92941    0.52370    1.000
    N4802    N        0.75477    0.96605    0.58945    1.000
    N4803    N        0.79110    0.87699    0.62316    1.000
    N4804    N        0.79224    0.86368    0.74562    1.000
    N4805    N        0.77810    0.82375    0.68213    1.000
    Si4806   Si       0.76568    0.85388    0.71207    1.000
    N4807    N        0.80107    0.77907    0.73398    1.000
    Si4808   Si       0.75538    0.88140    0.64655    1.000
    N4809    N        0.78887    0.00737    0.67252    1.000
    Si4810   Si       0.81150    0.98019    0.64607    1.000
    N4811    N        0.76098    0.95227    0.71646    1.000
    N4812    N        0.79131    0.94033    0.63950    1.000
    N4813    N        0.75832    0.89021    0.68770    1.000
    Si4814   Si       0.78292    0.77105    0.83745    1.000
    N4815    N        0.76721    0.79093    0.80077    1.000
    Si4816   Si       0.76834    0.76866    0.76253    1.000
    N4817    N        0.76675    0.86731    0.80617    1.000
    N4818    N        0.80481    0.79603    0.86586    1.000
    Si4819   Si       0.77194    0.89302    0.77005    1.000
    N4820    N        0.79383    0.92936    0.77677    1.000
    N4821    N        0.78326    0.93138    0.84770    1.000
    N4822    N        0.79829    0.99871    0.76627    1.000
    Si4823   Si       0.79621    0.97695    0.86038    1.000
    N4824    N        0.76582    0.99490    0.83568    1.000
    Si4825   Si       0.79522    0.95999    0.74491    1.000
    Si4826   Si       0.78699    0.80023    0.90709    1.000
    N4827    N        0.77113    0.82815    0.96105    1.000
    Si4828   Si       0.77732    0.87106    0.96655    1.000
    N4829    N        0.78056    0.76777    0.93752    1.000
    Si4830   Si       0.77879    0.78747    0.97882    1.000
    Si4831   Si       0.79640    0.99859    0.92645    1.000
    N4832    N        0.79210    0.96083    0.90174    1.000
    N4833    N        0.79751    0.90541    0.94326    1.000
    N4834    N        0.76637    0.94015    0.99331    1.000
    Si4835   Si       0.79067    0.91720    0.89555    1.000
    Si4836   Si       0.80156    0.93854    0.96923    1.000
    N4837    N        0.83354    0.10428    0.05640    1.000
    Si4838   Si       0.82540    0.10291    0.09810    1.000
    N4839    N        0.84880    0.06895    0.11637    1.000
    Si4840   Si       0.83526    0.18023    0.08452    1.000
    N4841    N        0.83546    0.21428    0.10994    1.000
    N4842    N        0.82209    0.14588    0.10852    1.000
    Si4843   Si       0.86645    0.24682    0.10404    1.000
    N4844    N        0.81523    0.14920    0.00823    1.000
    N4845    N        0.87086    0.21362    0.00221    1.000
    Si4846   Si       0.86413    0.03685    0.21706    1.000
    Si4847   Si       0.83600    0.03810    0.14624    1.000
    Si4848   Si       0.83932    0.10061    0.18913    1.000
    N4849    N        0.81922    0.10541    0.22680    1.000
    N4850    N        0.84459    0.05858    0.18406    1.000
    N4851    N        0.85740    0.23324    0.17711    1.000
    Si4852   Si       0.84940    0.19975    0.15095    1.000
    N4853    N        0.81558    0.18027    0.16911    1.000
    Si4854   Si       0.83924    0.06723    0.32985    1.000
    Si4855   Si       0.84288    0.09822    0.26357    1.000
    N4856    N        0.81991    0.08236    0.29458    1.000
    N4857    N        0.83325    0.09386    0.36422    1.000
    N4858    N        0.81939    0.03166    0.34166    1.000
    N4859    N        0.86987    0.06663    0.24988    1.000
    N4860    N        0.85951    0.13636    0.27814    1.000
    Si4861   Si       0.85690    0.17173    0.34750    1.000
    Si4862   Si       0.83948    0.17358    0.27348    1.000
    N4863    N        0.82919    0.18336    0.31521    1.000
    Si4864   Si       0.85508    0.24134    0.34153    1.000
    Si4865   Si       0.86025    0.24930    0.26903    1.000
    N4866    N        0.83256    0.25079    0.30391    1.000
    N4867    N        0.81869    0.23295    0.36481    1.000
    N4868    N        0.82978    0.10879    0.47835    1.000
    Si4869   Si       0.82796    0.03058    0.44782    1.000
    N4870    N        0.86113    0.05655    0.44051    1.000
    Si4871   Si       0.86498    0.09680    0.45538    1.000
    N4872    N        0.86874    0.12174    0.41719    1.000
    Si4873   Si       0.85993    0.16487    0.41929    1.000
    N4874    N        0.83955    0.24035    0.43782    1.000
    Si4875   Si       0.82839    0.14773    0.49277    1.000
    N4876    N        0.84001    0.17286    0.45630    1.000
    N4877    N        0.83637    0.16704    0.38411    1.000
    Si4878   Si       0.84339    0.21372    0.47154    1.000
    N4879    N        0.84201    0.06248    0.59263    1.000
    Si4880   Si       0.82536    0.08221    0.55417    1.000
    Si4881   Si       0.84745    0.01858    0.59380    1.000
    Si4882   Si       0.82456    0.01446    0.52241    1.000
    N4883    N        0.86498    0.09984    0.54973    1.000
    N4884    N        0.81318    0.05651    0.52322    1.000
    N4885    N        0.85562    0.00940    0.55195    1.000
    Si4886   Si       0.83355    0.23700    0.54620    1.000
    N4887    N        0.82176    0.21904    0.50829    1.000
    N4888    N        0.86651    0.15829    0.51418    1.000
    N4889    N        0.86824    0.21426    0.55828    1.000
    N4890    N        0.81267    0.23917    0.58531    1.000
    N4891    N        0.84797    0.05582    0.66507    1.000
    Si4892   Si       0.83633    0.08259    0.63282    1.000
    N4893    N        0.82580    0.11217    0.69236    1.000
    Si4894   Si       0.84330    0.07447    0.70405    1.000
    N4895    N        0.81499    0.04891    0.72421    1.000
    N4896    N        0.87091    0.10882    0.62531    1.000
    N4897    N        0.86281    0.16906    0.66157    1.000
    N4898    N        0.81959    0.22818    0.65934    1.000
    Si4899   Si       0.83399    0.24866    0.62282    1.000
    N4900    N        0.82542    0.17857    0.71608    1.000
    Si4901   Si       0.85142    0.14791    0.69878    1.000
    Si4902   Si       0.85929    0.21199    0.66658    1.000
    N4903    N        0.82703    0.06794    0.79104    1.000
    N4904    N        0.85561    0.03550    0.84002    1.000
    Si4905   Si       0.86461    0.07097    0.81639    1.000
    Si4906   Si       0.82776    0.03357    0.76287    1.000
    N4907    N        0.86591    0.01598    0.77446    1.000
    N4908    N        0.86934    0.09536    0.85197    1.000
    Si4909   Si       0.83982    0.17168    0.86098    1.000
    Si4910   Si       0.83524    0.18386    0.75899    1.000
    N4911    N        0.81988    0.14804    0.77603    1.000
    Si4912   Si       0.82540    0.25777    0.77980    1.000
    N4913    N        0.85519    0.25392    0.81362    1.000
    N4914    N        0.81171    0.21559    0.77643    1.000
    Si4915   Si       0.84397    0.03958    0.88234    1.000
    N4916    N        0.85904    0.03695    0.96835    1.000
    N4917    N        0.84133    0.07210    0.91257    1.000
    N4918    N        0.85070    0.11332    0.96245    1.000
    Si4919   Si       0.83574    0.07308    0.95553    1.000
    Si4920   Si       0.85100    0.10877    0.89322    1.000
    Si4921   Si       0.83951    0.23763    0.98417    1.000
    Si4922   Si       0.82339    0.14823    0.96562    1.000
    N4923    N        0.84273    0.24720    0.94172    1.000
    Si4924   Si       0.84020    0.20985    0.92124    1.000
    N4925    N        0.86171    0.19743    0.88657    1.000
    N4926    N        0.85029    0.17966    0.94966    1.000
    N4927    N        0.82089    0.13615    0.88084    1.000
    N4928    N        0.81445    0.25938    0.87641    1.000
    N4929    N        0.83592    0.27035    0.01333    1.000
    Si4930   Si       0.82419    0.35733    0.05906    1.000
    N4931    N        0.82370    0.31558    0.06601    1.000
    N4932    N        0.85907    0.37878    0.07055    1.000
    N4933    N        0.84703    0.28253    0.11670    1.000
    N4934    N        0.83627    0.44357    0.07920    1.000
    Si4935   Si       0.82465    0.47199    0.04692    1.000
    N4936    N        0.86238    0.47415    0.02602    1.000
    N4937    N        0.84295    0.27361    0.23972    1.000
    Si4938   Si       0.85410    0.30860    0.15013    1.000
    N4939    N        0.84526    0.34700    0.13182    1.000
    N4940    N        0.82450    0.29431    0.17766    1.000
    Si4941   Si       0.82930    0.25857    0.20070    1.000
    N4942    N        0.86214    0.50100    0.21689    1.000
    N4943    N        0.83548    0.38884    0.20577    1.000
    N4944    N        0.81772    0.41488    0.13923    1.000
    N4945    N        0.81570    0.48082    0.14031    1.000
    Si4946   Si       0.83335    0.42386    0.18043    1.000
    N4947    N        0.85337    0.31820    0.29413    1.000
    N4948    N        0.84027    0.34090    0.36310    1.000
    Si4949   Si       0.82381    0.33627    0.32057    1.000
    Si4950   Si       0.84253    0.31533    0.25308    1.000
    N4951    N        0.82017    0.37985    0.31762    1.000
    N4952    N        0.86847    0.28092    0.35024    1.000
    Si4953   Si       0.83118    0.38334    0.36101    1.000
    Si4954   Si       0.85367    0.48274    0.25447    1.000
    Si4955   Si       0.85891    0.48024    0.32677    1.000
    N4956    N        0.84528    0.44195    0.30705    1.000
    N4957    N        0.86051    0.50709    0.29191    1.000
    N4958    N        0.86077    0.36295    0.48710    1.000
    Si4959   Si       0.84784    0.30310    0.38138    1.000
    Si4960   Si       0.84301    0.28410    0.44501    1.000
    N4961    N        0.81541    0.28816    0.40435    1.000
    N4962    N        0.81834    0.46371    0.48406    1.000
    Si4963   Si       0.85570    0.43832    0.40897    1.000
    N4964    N        0.82617    0.46964    0.40719    1.000
    N4965    N        0.86037    0.41224    0.37471    1.000
    N4966    N        0.84703    0.41113    0.44109    1.000
    N4967    N        0.84726    0.27641    0.53616    1.000
    Si4968   Si       0.85925    0.32508    0.60748    1.000
    Si4969   Si       0.82975    0.37270    0.51595    1.000
    N4970    N        0.82650    0.32211    0.57631    1.000
    N4971    N        0.85029    0.38780    0.55173    1.000
    Si4972   Si       0.83682    0.42558    0.56993    1.000
    N4973    N        0.82311    0.42509    0.61183    1.000
    N4974    N        0.85481    0.50328    0.52738    1.000
    Si4975   Si       0.85894    0.47040    0.49668    1.000
    Si4976   Si       0.87286    0.49452    0.56821    1.000
    N4977    N        0.83216    0.35322    0.63009    1.000
    N4978    N        0.84430    0.32257    0.69121    1.000
    Si4979   Si       0.83008    0.31679    0.73309    1.000
    N4980    N        0.84733    0.28766    0.63512    1.000
    Si4981   Si       0.81701    0.30914    0.66118    1.000
    N4982    N        0.84278    0.27487    0.74184    1.000
    N4983    N        0.81518    0.41578    0.67251    1.000
    Si4984   Si       0.83637    0.39368    0.64007    1.000
    N4985    N        0.84770    0.40396    0.72866    1.000
    N4986    N        0.82034    0.48909    0.65426    1.000
    Si4987   Si       0.85684    0.50954    0.63892    1.000
    N4988    N        0.84890    0.33852    0.76611    1.000
    N4989    N        0.83659    0.31916    0.83116    1.000
    Si4990   Si       0.84307    0.27983    0.84696    1.000
    Si4991   Si       0.86674    0.33769    0.85751    1.000
    Si4992   Si       0.81583    0.32760    0.79535    1.000
    Si4993   Si       0.83467    0.46442    0.80517    1.000
    N4994    N        0.85217    0.46203    0.76466    1.000
    N4995    N        0.85845    0.48450    0.83399    1.000
    Si4996   Si       0.81752    0.48236    0.74769    1.000
    N4997    N        0.84602    0.36689    0.88152    1.000
    N4998    N        0.83510    0.30766    0.92000    1.000
    Si4999   Si       0.81782    0.34626    0.90929    1.000
    Si5000   Si       0.83240    0.38036    0.98431    1.000
    N5001    N        0.81289    0.37270    0.94402    1.000
    Si5002   Si       0.81215    0.27020    0.92059    1.000
    Si5003   Si       0.86565    0.40635    0.88033    1.000
    N5004    N        0.83283    0.43533    0.88592    1.000
    Si5005   Si       0.83643    0.46161    0.92018    1.000
    N5006    N        0.82732    0.50204    0.89844    1.000
    N5007    N        0.86882    0.46840    0.95044    1.000
    N5008    N        0.83603    0.42295    0.99054    1.000
    Si5009   Si       0.84163    0.57080    0.08193    1.000
    N5010    N        0.85617    0.55094    0.04724    1.000
    N5011    N        0.86119    0.60868    0.09133    1.000
    N5012    N        0.84885    0.54236    0.11509    1.000
    Si5013   Si       0.81640    0.51724    0.11821    1.000
    N5014    N        0.86206    0.60422    0.99885    1.000
    Si5015   Si       0.81757    0.66432    0.02870    1.000
    N5016    N        0.83390    0.74297    0.03775    1.000
    Si5017   Si       0.84756    0.65214    0.10082    1.000
    N5018    N        0.83702    0.67681    0.06729    1.000
    N5019    N        0.85279    0.73534    0.10134    1.000
    Si5020   Si       0.85811    0.71356    0.06121    1.000
    N5021    N        0.84935    0.67301    0.00068    1.000
    N5022    N        0.84325    0.61621    0.19020    1.000
    Si5023   Si       0.84850    0.53854    0.20372    1.000
    Si5024   Si       0.84559    0.60652    0.23283    1.000
    N5025    N        0.85147    0.56313    0.24013    1.000
    Si5026   Si       0.82365    0.72203    0.18595    1.000
    N5027    N        0.82136    0.69992    0.22175    1.000
    N5028    N        0.86510    0.71616    0.16961    1.000
    N5029    N        0.81814    0.64908    0.13158    1.000
    Si5030   Si       0.85830    0.55015    0.28232    1.000
    N5031    N        0.82414    0.62152    0.31085    1.000
    N5032    N        0.86689    0.57686    0.36523    1.000
    N5033    N        0.85333    0.51042    0.35941    1.000
    Si5034   Si       0.86834    0.72657    0.34214    1.000
    N5035    N        0.86775    0.63611    0.25672    1.000
    N5036    N        0.83101    0.68687    0.28784    1.000
    Si5037   Si       0.85331    0.65103    0.29460    1.000
    N5038    N        0.82782    0.73807    0.33005    1.000
    Si5039   Si       0.84173    0.71877    0.25829    1.000
    N5040    N        0.82202    0.75575    0.26695    1.000
    N5041    N        0.81462    0.57662    0.42498    1.000
    N5042    N        0.86389    0.55738    0.47507    1.000
    Si5043   Si       0.84852    0.59319    0.40186    1.000
    Si5044   Si       0.82047    0.56619    0.46847    1.000
    N5045    N        0.83820    0.63234    0.38671    1.000
    Si5046   Si       0.82845    0.67347    0.38822    1.000
    Si5047   Si       0.83885    0.68791    0.45550    1.000
    N5048    N        0.84868    0.72809    0.46287    1.000
    N5049    N        0.86247    0.69536    0.37265    1.000
    Si5050   Si       0.85434    0.56103    0.57996    1.000
    N5051    N        0.83615    0.58453    0.61077    1.000
    N5052    N        0.85162    0.52032    0.59799    1.000
    N5053    N        0.82503    0.56300    0.54784    1.000
    Si5054   Si       0.81162    0.61729    0.59816    1.000
    Si5055   Si       0.85100    0.73740    0.59241    1.000
    N5056    N        0.83830    0.69612    0.56434    1.000
    Si5057   Si       0.83476    0.66027    0.53700    1.000
    N5058    N        0.83322    0.64928    0.62099    1.000
    N5059    N        0.82800    0.67250    0.49633    1.000
    N5060    N        0.82210    0.51523    0.71925    1.000
    N5061    N        0.84812    0.61219    0.67380    1.000
    Si5062   Si       0.83422    0.57722    0.65245    1.000
    Si5063   Si       0.85494    0.61571    0.71779    1.000
    Si5064   Si       0.85866    0.53793    0.71271    1.000
    N5065    N        0.85775    0.54169    0.66766    1.000
    N5066    N        0.85286    0.57494    0.73636    1.000
    N5067    N        0.83341    0.72351    0.70676    1.000
    Si5068   Si       0.81887    0.74051    0.74482    1.000
    N5069    N        0.83263    0.65403    0.73158    1.000
    Si5070   Si       0.84836    0.74451    0.66810    1.000
    Si5071   Si       0.81550    0.68729    0.63076    1.000
    N5072    N        0.83850    0.72239    0.63251    1.000
    Si5073   Si       0.86803    0.64188    0.64926    1.000
    Si5074   Si       0.83565    0.68193    0.69689    1.000
    N5075    N        0.84608    0.59837    0.85886    1.000
    Si5076   Si       0.85775    0.59697    0.81595    1.000
    Si5077   Si       0.84306    0.51552    0.85951    1.000
    N5078    N        0.81881    0.59991    0.79704    1.000
    N5079    N        0.81488    0.54023    0.83897    1.000
    Si5080   Si       0.85105    0.74737    0.81396    1.000
    N5081    N        0.85240    0.74301    0.76958    1.000
    Si5082   Si       0.85072    0.64527    0.86035    1.000
    N5083    N        0.81824    0.66547    0.84144    1.000
    Si5084   Si       0.83182    0.60247    0.92088    1.000
    N5085    N        0.82420    0.52515    0.96393    1.000
    Si5086   Si       0.86703    0.51331    0.96091    1.000
    Si5087   Si       0.81914    0.59802    0.99476    1.000
    N5088    N        0.86407    0.69614    0.93081    1.000
    N5089    N        0.83279    0.64392    0.90334    1.000
    Si5090   Si       0.82413    0.68290    0.92009    1.000
    Si5091   Si       0.85039    0.70616    0.97016    1.000
    N5092    N        0.87147    0.74203    0.98404    1.000
    N5093    N        0.83747    0.81999    0.08148    1.000
    Si5094   Si       0.85030    0.77055    0.00843    1.000
    Si5095   Si       0.85675    0.78238    0.09992    1.000
    N5096    N        0.86487    0.86949    0.02926    1.000
    Si5097   Si       0.83170    0.88075    0.00349    1.000
    Si5098   Si       0.87090    0.83279    0.05411    1.000
    Si5099   Si       0.83647    0.91575    0.10017    1.000
    N5100    N        0.85536    0.99540    0.02654    1.000
    Si5101   Si       0.86027    0.99220    0.10249    1.000
    N5102    N        0.81734    0.00247    0.09128    1.000
    N5103    N        0.85867    0.95101    0.09041    1.000
    Si5104   Si       0.81793    0.99614    0.04821    1.000
    N5105    N        0.83920    0.92164    0.98860    1.000
    N5106    N        0.81258    0.76518    0.19884    1.000
    N5107    N        0.84115    0.83735    0.18158    1.000
    Si5108   Si       0.83855    0.79414    0.17602    1.000
    Si5109   Si       0.83049    0.87320    0.15611    1.000
    N5110    N        0.83013    0.78217    0.13657    1.000
    Si5111   Si       0.86466    0.84777    0.21610    1.000
    N5112    N        0.86888    0.81737    0.24624    1.000
    N5113    N        0.85867    0.88612    0.12225    1.000
    N5114    N        0.86237    0.00527    0.14612    1.000
    N5115    N        0.85167    0.88579    0.23719    1.000
    N5116    N        0.81793    0.90392    0.18407    1.000
    N5117    N        0.83997    0.00460    0.23002    1.000
    Si5118   Si       0.81411    0.90729    0.22788    1.000
    N5119    N        0.81401    0.94818    0.24311    1.000
    Si5120   Si       0.85843    0.83263    0.28761    1.000
    N5121    N        0.85586    0.79861    0.31340    1.000
    Si5122   Si       0.82105    0.77254    0.30653    1.000
    N5123    N        0.83851    0.87614    0.35734    1.000
    N5124    N        0.81923    0.84929    0.29340    1.000
    N5125    N        0.85047    0.96361    0.29004    1.000
    Si5126   Si       0.85511    0.96864    0.24735    1.000
    Si5127   Si       0.81981    0.82385    0.46029    1.000
    Si5128   Si       0.83008    0.79252    0.40780    1.000
    N5129    N        0.84246    0.83260    0.42265    1.000
    N5130    N        0.84044    0.79454    0.48795    1.000
    N5131    N        0.86526    0.76833    0.41240    1.000
    Si5132   Si       0.81795    0.75869    0.47272    1.000
    Si5133   Si       0.81394    0.85040    0.38570    1.000
    N5134    N        0.85882    0.94979    0.38287    1.000
    Si5135   Si       0.86615    0.90818    0.36912    1.000
    Si5136   Si       0.83508    0.96193    0.41899    1.000
    N5137    N        0.83953    0.00794    0.48364    1.000
    Si5138   Si       0.87101    0.97958    0.48201    1.000
    N5139    N        0.81964    0.00335    0.41523    1.000
    N5140    N        0.86629    0.95403    0.44795    1.000
    N5141    N        0.86875    0.77791    0.60610    1.000
    N5142    N        0.81581    0.82019    0.59600    1.000
    Si5143   Si       0.81153    0.86328    0.58970    1.000
    N5144    N        0.84871    0.88980    0.60056    1.000
    Si5145   Si       0.85577    0.92102    0.57051    1.000
    Si5146   Si       0.86057    0.91211    0.50070    1.000
    N5147    N        0.81547    0.93515    0.56243    1.000
    N5148    N        0.86888    0.95254    0.51457    1.000
    N5149    N        0.81473    0.99312    0.60496    1.000
    N5150    N        0.81707    0.90866    0.49342    1.000
    Si5151   Si       0.81185    0.80166    0.69770    1.000
    Si5152   Si       0.84195    0.80363    0.62777    1.000
    N5153    N        0.84040    0.83461    0.70794    1.000
    N5154    N        0.86407    0.83799    0.64297    1.000
    Si5155   Si       0.86020    0.85849    0.68090    1.000
    N5156    N        0.82855    0.78263    0.66473    1.000
    Si5157   Si       0.83662    0.85611    0.74484    1.000
    Si5158   Si       0.82100    0.90918    0.63299    1.000
    N5159    N        0.86537    0.88967    0.74228    1.000
    N5160    N        0.82711    0.95328    0.71773    1.000
    N5161    N        0.85297    0.96369    0.65144    1.000
    N5162    N        0.84107    0.89846    0.67190    1.000
    Si5163   Si       0.85169    0.93882    0.68716    1.000
    N5164    N        0.85628    0.84278    0.78195    1.000
    N5165    N        0.86162    0.84277    0.85128    1.000
    Si5166   Si       0.85643    0.88548    0.85612    1.000
    Si5167   Si       0.86922    0.88891    0.78619    1.000
    N5168    N        0.84276    0.90282    0.81801    1.000
    N5169    N        0.83048    0.97203    0.82876    1.000
    Si5170   Si       0.86067    0.99897    0.81537    1.000
    Si5171   Si       0.81325    0.93345    0.81518    1.000
    N5172    N        0.82597    0.81684    0.91841    1.000
    Si5173   Si       0.84146    0.81723    0.95883    1.000
    Si5174   Si       0.84517    0.81179    0.87729    1.000
    N5175    N        0.83575    0.85870    0.96765    1.000
    N5176    N        0.82009    0.79083    0.98803    1.000
    N5177    N        0.82802    0.89127    0.88999    1.000
    Si5178   Si       0.83803    0.88646    0.93347    1.000
    Si5179   Si       0.84896    0.99580    0.98232    1.000
    N5180    N        0.81426    0.98020    0.96179    1.000
    N5181    N        0.91108    0.03641    0.01563    1.000
    Si5182   Si       0.89342    0.07167    0.10642    1.000
    N5183    N        0.89840    0.10310    0.02785    1.000
    N5184    N        0.88953    0.11556    0.09610    1.000
    N5185    N        0.88452    0.01944    0.08081    1.000
    N5186    N        0.92862    0.06055    0.08076    1.000
    Si5187   Si       0.92681    0.07274    0.03675    1.000
    Si5188   Si       0.87287    0.12443    0.05651    1.000
    Si5189   Si       0.88845    0.20812    0.04152    1.000
    Si5190   Si       0.89848    0.15943    0.10229    1.000
    N5191    N        0.87642    0.24443    0.06296    1.000
    N5192    N        0.87504    0.17304    0.06604    1.000
    Si5193   Si       0.90067    0.02098    0.15572    1.000
    Si5194   Si       0.91185    0.09696    0.17372    1.000
    N5195    N        0.90317    0.01919    0.19912    1.000
    N5196    N        0.90698    0.06438    0.14678    1.000
    N5197    N        0.87736    0.12031    0.18620    1.000
    Si5198   Si       0.90258    0.23269    0.17808    1.000
    Si5199   Si       0.90100    0.15878    0.17485    1.000
    N5200    N        0.90090    0.24025    0.12813    1.000
    N5201    N        0.88167    0.17329    0.13938    1.000
    N5202    N        0.90096    0.19093    0.20016    1.000
    Si5203   Si       0.89980    0.04097    0.34825    1.000
    Si5204   Si       0.90194    0.06694    0.27816    1.000
    N5205    N        0.92057    0.10483    0.28933    1.000
    N5206    N        0.88001    0.05886    0.31690    1.000
    Si5207   Si       0.89469    0.13711    0.30043    1.000
    N5208    N        0.88173    0.13664    0.34301    1.000
    N5209    N        0.91531    0.17275    0.28315    1.000
    N5210    N        0.88058    0.20753    0.35191    1.000
    Si5211   Si       0.90913    0.19579    0.24578    1.000
    N5212    N        0.86661    0.20852    0.25633    1.000
    N5213    N        0.89530    0.06659    0.38295    1.000
    Si5214   Si       0.89919    0.04657    0.42169    1.000
    N5215    N        0.89553    0.09896    0.48714    1.000
    Si5216   Si       0.87240    0.10509    0.37605    1.000
    N5217    N        0.93218    0.05853    0.44796    1.000
    Si5218   Si       0.91374    0.20634    0.45243    1.000
    Si5219   Si       0.91565    0.19439    0.37907    1.000
    N5220    N        0.88853    0.21597    0.48599    1.000
    N5221    N        0.89518    0.18807    0.41675    1.000
    N5222    N        0.92175    0.25200    0.44941    1.000
    Si5223   Si       0.90582    0.25679    0.48938    1.000
    Si5224   Si       0.88992    0.12178    0.52361    1.000
    Si5225   Si       0.88002    0.08700    0.58834    1.000
    N5226    N        0.92285    0.08077    0.59107    1.000
    Si5227   Si       0.89149    0.21279    0.59480    1.000
    N5228    N        0.89796    0.16891    0.59727    1.000
    Si5229   Si       0.88801    0.19499    0.52434    1.000
    N5230    N        0.92921    0.19221    0.53593    1.000
    N5231    N        0.93344    0.22410    0.59154    1.000
    N5232    N        0.88223    0.01425    0.62016    1.000
    N5233    N        0.88134    0.06505    0.72648    1.000
    N5234    N        0.91536    0.06966    0.66534    1.000
    Si5235   Si       0.88637    0.03760    0.65987    1.000
    Si5236   Si       0.90719    0.09050    0.70248    1.000
    N5237    N        0.88746    0.12907    0.71225    1.000
    Si5238   Si       0.88877    0.14741    0.63450    1.000
    N5239    N        0.87906    0.22551    0.70433    1.000
    Si5240   Si       0.91991    0.13929    0.73947    1.000
    Si5241   Si       0.90299    0.20587    0.73675    1.000
    N5242    N        0.87537    0.23092    0.63045    1.000
    N5243    N        0.92938    0.13224    0.64553    1.000
    N5244    N        0.90305    0.06937    0.79505    1.000
    Si5245   Si       0.89776    0.04201    0.75977    1.000
    Si5246   Si       0.89746    0.12870    0.85761    1.000
    Si5247   Si       0.93355    0.10033    0.80163    1.000
    N5248    N        0.92037    0.13814    0.78519    1.000
    Si5249   Si       0.89829    0.17258    0.80145    1.000
    N5250    N        0.91688    0.20991    0.81714    1.000
    N5251    N        0.90948    0.24397    0.75828    1.000
    Si5252   Si       0.89678    0.24385    0.80026    1.000
    N5253    N        0.87764    0.18679    0.76603    1.000
    N5254    N        0.87552    0.15783    0.83539    1.000
    Si5255   Si       0.88864    0.11521    0.98447    1.000
    N5256    N        0.91408    0.08526    0.96671    1.000
    Si5257   Si       0.90123    0.04486    0.97309    1.000
    N5258    N        0.91976    0.01952    0.94312    1.000
    N5259    N        0.87422    0.01319    0.89603    1.000
    N5260    N        0.88708    0.13378    0.89916    1.000
    Si5261   Si       0.89769    0.17512    0.90422    1.000
    N5262    N        0.90444    0.15489    0.98542    1.000
    Si5263   Si       0.88712    0.18975    0.97066    1.000
    N5264    N        0.91290    0.20540    0.93633    1.000
    N5265    N        0.91291    0.34347    0.10085    1.000
    N5266    N        0.88551    0.31682    0.03045    1.000
    Si5267   Si       0.87700    0.27292    0.02854    1.000
    Si5268   Si       0.90437    0.34840    0.00714    1.000
    Si5269   Si       0.87663    0.36458    0.10749    1.000
    N5270    N        0.92402    0.37632    0.03588    1.000
    N5271    N        0.91851    0.26291    0.01526    1.000
    N5272    N        0.90730    0.43835    0.06775    1.000
    N5273    N        0.91097    0.43340    0.99818    1.000
    N5274    N        0.88687    0.40541    0.12140    1.000
    Si5275   Si       0.87243    0.42156    0.08432    1.000
    N5276    N        0.87335    0.33170    0.22490    1.000
    N5277    N        0.89627    0.31488    0.16122    1.000
    Si5278   Si       0.90468    0.30925    0.20258    1.000
    N5279    N        0.91112    0.26660    0.20673    1.000
    Si5280   Si       0.87453    0.37593    0.22154    1.000
    Si5281   Si       0.89113    0.47918    0.19441    1.000
    N5282    N        0.90315    0.49941    0.15569    1.000
    Si5283   Si       0.90491    0.41813    0.16037    1.000
    N5284    N        0.92908    0.48237    0.21770    1.000
    N5285    N        0.90484    0.38828    0.19365    1.000
    N5286    N        0.87446    0.44245    0.17854    1.000
    Si5287   Si       0.91218    0.36998    0.29021    1.000
    N5288    N        0.91502    0.33218    0.31045    1.000
    Si5289   Si       0.88650    0.29804    0.31466    1.000
    N5290    N        0.89540    0.26318    0.28969    1.000
    N5291    N        0.88273    0.38601    0.26223    1.000
    N5292    N        0.89783    0.46463    0.34264    1.000
    N5293    N        0.90349    0.40319    0.31738    1.000
    Si5294   Si       0.90039    0.42297    0.35658    1.000
    N5295    N        0.88853    0.45480    0.26042    1.000
    Si5296   Si       0.87879    0.42215    0.28696    1.000
    Si5297   Si       0.93075    0.49046    0.33779    1.000
    Si5298   Si       0.93026    0.47107    0.26014    1.000
    N5299    N        0.92013    0.32617    0.46224    1.000
    Si5300   Si       0.91102    0.29340    0.43492    1.000
    Si5301   Si       0.88547    0.32665    0.49041    1.000
    N5302    N        0.87352    0.30226    0.41661    1.000
    N5303    N        0.87603    0.28623    0.47596    1.000
    Si5304   Si       0.87564    0.40182    0.47235    1.000
    Si5305   Si       0.92677    0.42604    0.42474    1.000
    N5306    N        0.89564    0.45347    0.41804    1.000
    Si5307   Si       0.90355    0.49439    0.43282    1.000
    N5308    N        0.88168    0.49466    0.47039    1.000
    N5309    N        0.91400    0.39383    0.45183    1.000
    N5310    N        0.89228    0.32783    0.53233    1.000
    Si5311   Si       0.88936    0.36617    0.55403    1.000
    Si5312   Si       0.88743    0.28857    0.54866    1.000
    N5313    N        0.89126    0.29223    0.59321    1.000
    N5314    N        0.88923    0.36014    0.59592    1.000
    N5315    N        0.91969    0.26224    0.53045    1.000
    Si5316   Si       0.89984    0.43336    0.54155    1.000
    N5317    N        0.91975    0.39430    0.54577    1.000
    N5318    N        0.87779    0.43229    0.50269    1.000
    N5319    N        0.86944    0.45233    0.56657    1.000
    Si5320   Si       0.89158    0.27716    0.63509    1.000
    Si5321   Si       0.90347    0.36767    0.63559    1.000
    N5322    N        0.90493    0.32468    0.65015    1.000
    N5323    N        0.89553    0.36046    0.71699    1.000
    N5324    N        0.90248    0.28748    0.70095    1.000
    Si5325   Si       0.88793    0.32665    0.69041    1.000
    Si5326   Si       0.88090    0.26128    0.72713    1.000
    N5327    N        0.87705    0.39368    0.65595    1.000
    N5328    N        0.89464    0.48927    0.64629    1.000
    Si5329   Si       0.91471    0.46168    0.67233    1.000
    Si5330   Si       0.87802    0.39730    0.69927    1.000
    N5331    N        0.89739    0.43571    0.70532    1.000
    Si5332   Si       0.92652    0.49598    0.73872    1.000
    N5333    N        0.89958    0.35783    0.83784    1.000
    N5334    N        0.91660    0.28045    0.81426    1.000
    Si5335   Si       0.91981    0.27898    0.85805    1.000
    N5336    N        0.92261    0.34370    0.77986    1.000
    Si5337   Si       0.88716    0.36052    0.76002    1.000
    Si5338   Si       0.92465    0.32580    0.81921    1.000
    N5339    N        0.88018    0.29466    0.87013    1.000
    Si5340   Si       0.90730    0.39521    0.81616    1.000
    Si5341   Si       0.89800    0.46720    0.84664    1.000
    N5342    N        0.88979    0.42327    0.84563    1.000
    N5343    N        0.88926    0.39953    0.77722    1.000
    N5344    N        0.91934    0.46092    0.76301    1.000
    Si5345   Si       0.88521    0.43613    0.74953    1.000
    N5346    N        0.93073    0.48571    0.82434    1.000
    Si5347   Si       0.89412    0.37795    0.94255    1.000
    N5348    N        0.89446    0.33759    0.92462    1.000
    N5349    N        0.91205    0.27869    0.93054    1.000
    Si5350   Si       0.87725    0.29718    0.91325    1.000
    N5351    N        0.87517    0.36819    0.98092    1.000
    N5352    N        0.90437    0.47568    0.88933    1.000
    N5353    N        0.88395    0.41134    0.91938    1.000
    Si5354   Si       0.90283    0.45383    0.92495    1.000
    Si5355   Si       0.87143    0.44794    0.99191    1.000
    Si5356   Si       0.90104    0.59721    0.10657    1.000
    Si5357   Si       0.88978    0.57336    0.01289    1.000
    N5358    N        0.91260    0.58220    0.04821    1.000
    N5359    N        0.91158    0.55757    0.11023    1.000
    Si5360   Si       0.87941    0.51198    0.03702    1.000
    N5361    N        0.88999    0.52753    0.99668    1.000
    Si5362   Si       0.92841    0.54888    0.07143    1.000
    N5363    N        0.92969    0.62802    0.09122    1.000
    N5364    N        0.91524    0.50885    0.06052    1.000
    Si5365   Si       0.93357    0.61915    0.04865    1.000
    Si5366   Si       0.92125    0.74034    0.08297    1.000
    N5367    N        0.91239    0.65056    0.02626    1.000
    N5368    N        0.90006    0.71438    0.05380    1.000
    Si5369   Si       0.92891    0.69101    0.02879    1.000
    N5370    N        0.88243    0.67246    0.11831    1.000
    Si5371   Si       0.88227    0.59904    0.17943    1.000
    N5372    N        0.90743    0.60437    0.21329    1.000
    N5373    N        0.90242    0.61584    0.14555    1.000
    Si5374   Si       0.88580    0.53545    0.13767    1.000
    N5375    N        0.87381    0.55676    0.17352    1.000
    Si5376   Si       0.89454    0.71344    0.20239    1.000
    N5377    N        0.87743    0.73327    0.23722    1.000
    Si5378   Si       0.90612    0.64330    0.24013    1.000
    Si5379   Si       0.87894    0.71344    0.12882    1.000
    Si5380   Si       0.92043    0.65201    0.12659    1.000
    N5381    N        0.90731    0.67182    0.20912    1.000
    N5382    N        0.92136    0.72558    0.12286    1.000
    N5383    N        0.89472    0.56665    0.29912    1.000
    Si5384   Si       0.89025    0.59554    0.33272    1.000
    N5385    N        0.92412    0.52953    0.35425    1.000
    Si5386   Si       0.93026    0.54320    0.28776    1.000
    N5387    N        0.92889    0.59864    0.35294    1.000
    N5388    N        0.88644    0.64043    0.32080    1.000
    Si5389   Si       0.91548    0.67114    0.30975    1.000
    N5390    N        0.89607    0.71014    0.31053    1.000
    Si5391   Si       0.92206    0.74631    0.31235    1.000
    N5392    N        0.89633    0.76064    0.34795    1.000
    Si5393   Si       0.88414    0.53738    0.37342    1.000
    Si5394   Si       0.89574    0.56384    0.44579    1.000
    N5395    N        0.89091    0.53189    0.41573    1.000
    N5396    N        0.88253    0.59912    0.42565    1.000
    N5397    N        0.91701    0.65215    0.39671    1.000
    Si5398   Si       0.89267    0.68907    0.40073    1.000
    Si5399   Si       0.88290    0.74553    0.44360    1.000
    Si5400   Si       0.89832    0.63858    0.43368    1.000
    N5401    N        0.91976    0.64170    0.47209    1.000
    N5402    N        0.91046    0.72687    0.41554    1.000
    N5403    N        0.87325    0.67334    0.43683    1.000
    N5404    N        0.88990    0.58461    0.56925    1.000
    Si5405   Si       0.90900    0.62421    0.56238    1.000
    N5406    N        0.92412    0.52556    0.50886    1.000
    N5407    N        0.90805    0.51994    0.57555    1.000
    Si5408   Si       0.88201    0.52544    0.50017    1.000
    Si5409   Si       0.92100    0.51045    0.61746    1.000
    Si5410   Si       0.92710    0.56381    0.58214    1.000
    Si5411   Si       0.91440    0.74382    0.51410    1.000
    N5412    N        0.90861    0.69992    0.51810    1.000
    Si5413   Si       0.88782    0.68888    0.55655    1.000
    N5414    N        0.89164    0.72592    0.57848    1.000
    N5415    N        0.91845    0.66577    0.58060    1.000
    N5416    N        0.87556    0.64725    0.54356    1.000
    Si5417   Si       0.93042    0.72740    0.59842    1.000
    N5418    N        0.90776    0.63147    0.63906    1.000
    N5419    N        0.92634    0.55474    0.62551    1.000
    N5420    N        0.89048    0.52160    0.73600    1.000
    N5421    N        0.89706    0.62682    0.71533    1.000
    Si5422   Si       0.92028    0.66096    0.72990    1.000
    N5423    N        0.89492    0.74772    0.67181    1.000
    N5424    N        0.92816    0.70216    0.63338    1.000
    Si5425   Si       0.90505    0.70641    0.66963    1.000
    N5426    N        0.87054    0.67991    0.67190    1.000
    N5427    N        0.88945    0.57237    0.79885    1.000
    N5428    N        0.91812    0.59057    0.85910    1.000
    Si5429   Si       0.89218    0.56268    0.75749    1.000
    Si5430   Si       0.92618    0.58408    0.81829    1.000
    Si5431   Si       0.89951    0.69569    0.85000    1.000
    N5432    N        0.90325    0.67695    0.76636    1.000
    Si5433   Si       0.90796    0.65318    0.80241    1.000
    Si5434   Si       0.88848    0.71724    0.77549    1.000
    N5435    N        0.92291    0.74343    0.77303    1.000
    N5436    N        0.87574    0.71069    0.81739    1.000
    N5437    N        0.87238    0.63736    0.81898    1.000
    N5438    N        0.87979    0.53696    0.87013    1.000
    N5439    N        0.92191    0.58033    0.97966    1.000
    Si5440   Si       0.87866    0.57916    0.87861    1.000
    Si5441   Si       0.90944    0.51784    0.89584    1.000
    Si5442   Si       0.91172    0.60396    0.94388    1.000
    N5443    N        0.90321    0.52462    0.93714    1.000
    N5444    N        0.87744    0.59253    0.92061    1.000
    Si5445   Si       0.92786    0.53780    0.97262    1.000
    Si5446   Si       0.88201    0.64314    0.99670    1.000
    Si5447   Si       0.89458    0.66773    0.91880    1.000
    N5448    N        0.90403    0.64443    0.95603    1.000
    N5449    N        0.90482    0.73308    0.87279    1.000
    N5450    N        0.88672    0.66345    0.87764    1.000
    N5451    N        0.92775    0.70310    0.98651    1.000
    Si5452   Si       0.91323    0.74372    0.97703    1.000
    N5453    N        0.90232    0.84231    0.08120    1.000
    N5454    N        0.90091    0.77866    0.09045    1.000
    Si5455   Si       0.92258    0.81288    0.10687    1.000
    N5456    N        0.87571    0.80014    0.02533    1.000
    Si5457   Si       0.90797    0.81278    0.99887    1.000
    N5458    N        0.92666    0.85084    0.01150    1.000
    Si5459   Si       0.89991    0.88284    0.10333    1.000
    Si5460   Si       0.90479    0.88480    0.03021    1.000
    N5461    N        0.91143    0.90601    0.06856    1.000
    N5462    N        0.91361    0.92147    0.00381    1.000
    Si5463   Si       0.89402    0.00442    0.04004    1.000
    N5464    N        0.87727    0.78160    0.19207    1.000
    Si5465   Si       0.91681    0.79339    0.17852    1.000
    N5466    N        0.90973    0.82415    0.14809    1.000
    N5467    N        0.90127    0.87106    0.20201    1.000
    Si5468   Si       0.88946    0.77815    0.23673    1.000
    Si5469   Si       0.92504    0.85840    0.16773    1.000
    N5470    N        0.92987    0.79119    0.21993    1.000
    Si5471   Si       0.88923    0.90548    0.22765    1.000
    Si5472   Si       0.91396    0.97403    0.20465    1.000
    N5473    N        0.87931    0.94705    0.21914    1.000
    N5474    N        0.92917    0.88463    0.13494    1.000
    N5475    N        0.92975    0.00271    0.12634    1.000
    N5476    N        0.89515    0.84965    0.30498    1.000
    Si5477   Si       0.89298    0.80549    0.33610    1.000
    N5478    N        0.91290    0.77435    0.27804    1.000
    N5479    N        0.92431    0.96502    0.30476    1.000
    Si5480   Si       0.90781    0.89277    0.30292    1.000
    Si5481   Si       0.88253    0.95919    0.31862    1.000
    N5482    N        0.91396    0.90907    0.26357    1.000
    N5483    N        0.89353    0.99705    0.34603    1.000
    N5484    N        0.88453    0.91670    0.32926    1.000
    N5485    N        0.88936    0.81653    0.37767    1.000
    N5486    N        0.91362    0.83479    0.43821    1.000
    Si5487   Si       0.91425    0.86134    0.47169    1.000
    Si5488   Si       0.88117    0.84481    0.41170    1.000
    Si5489   Si       0.90068    0.77495    0.38935    1.000
    N5490    N        0.90430    0.76388    0.47501    1.000
    Si5491   Si       0.89442    0.97651    0.38268    1.000
    N5492    N        0.88686    0.89334    0.47254    1.000
    N5493    N        0.90691    0.00294    0.41549    1.000
    N5494    N        0.90885    0.99825    0.48243    1.000
    N5495    N        0.88645    0.89167    0.40453    1.000
    Si5496   Si       0.89235    0.91890    0.43765    1.000
    Si5497   Si       0.92742    0.98050    0.44749    1.000
    N5498    N        0.93139    0.93744    0.44508    1.000
    Si5499   Si       0.89674    0.85985    0.54177    1.000
    N5500    N        0.88961    0.83457    0.57693    1.000
    Si5501   Si       0.89632    0.79121    0.57632    1.000
    N5502    N        0.89194    0.77677    0.53524    1.000
    Si5503   Si       0.88199    0.86070    0.60920    1.000
    N5504    N        0.89606    0.83802    0.50434    1.000
    Si5505   Si       0.88167    0.79719    0.49886    1.000
    Si5506   Si       0.88309    0.97663    0.54962    1.000
    N5507    N        0.92165    0.99300    0.54823    1.000
    N5508    N        0.88163    0.95250    0.58601    1.000
    N5509    N        0.86947    0.89205    0.53893    1.000
    N5510    N        0.92228    0.86766    0.61921    1.000
    N5511    N        0.90172    0.86579    0.68847    1.000
    N5512    N        0.92680    0.79389    0.72352    1.000
    N5513    N        0.89442    0.93862    0.70092    1.000
    Si5514   Si       0.92037    0.97247    0.69002    1.000
    N5515    N        0.89535    0.00673    0.69045    1.000
    Si5516   Si       0.88673    0.97106    0.62464    1.000
    Si5517   Si       0.90037    0.89972    0.71822    1.000
    N5518    N        0.92385    0.96413    0.64647    1.000
    Si5519   Si       0.90385    0.77450    0.85877    1.000
    N5520    N        0.91930    0.81833    0.79717    1.000
    Si5521   Si       0.87727    0.82406    0.81390    1.000
    N5522    N        0.87256    0.78251    0.82735    1.000
    N5523    N        0.90888    0.89475    0.79923    1.000
    N5524    N        0.89796    0.98258    0.83017    1.000
    Si5525   Si       0.92202    0.89916    0.84119    1.000
    N5526    N        0.89209    0.90335    0.87046    1.000
    N5527    N        0.88477    0.81045    0.96052    1.000
    Si5528   Si       0.90806    0.79487    0.92708    1.000
    N5529    N        0.88213    0.79534    0.89277    1.000
    N5530    N        0.92117    0.75483    0.93536    1.000
    Si5531   Si       0.90668    0.92002    0.90866    1.000
    Si5532   Si       0.87997    0.92880    0.97554    1.000
    Si5533   Si       0.90619    0.99134    0.87269    1.000
    N5534    N        0.90863    0.96108    0.90374    1.000
    Si5535   Si       0.88944    0.99115    0.92969    1.000
    N5536    N        0.87562    0.90859    0.93800    1.000
    N5537    N        0.88009    0.97170    0.96720    1.000
    N5538    N        0.97330    0.07210    0.03745    1.000
    Si5539   Si       0.97313    0.06711    0.08375    1.000
    N5540    N        0.97790    0.02316    0.08567    1.000
    N5541    N        0.97177    0.09651    0.11457    1.000
    Si5542   Si       0.93375    0.01646    0.08502    1.000
    N5543    N        0.97472    0.13732    0.00911    1.000
    Si5544   Si       0.99118    0.09745    0.00704    1.000
    N5545    N        0.96560    0.22915    0.10145    1.000
    Si5546   Si       0.95815    0.19593    0.07725    1.000
    Si5547   Si       0.94932    0.23002    0.01417    1.000
    N5548    N        0.94155    0.16353    0.09994    1.000
    N5549    N        0.93104    0.20605    0.04485    1.000
    Si5550   Si       0.96031    0.12214    0.19706    1.000
    N5551    N        0.97329    0.02124    0.20342    1.000
    Si5552   Si       0.93681    0.04217    0.21908    1.000
    N5553    N        0.93861    0.08364    0.20520    1.000
    N5554    N        0.93522    0.13478    0.16244    1.000
    N5555    N        0.94825    0.23142    0.16660    1.000
    N5556    N        0.94715    0.21830    0.23871    1.000
    Si5557   Si       0.98201    0.19279    0.22896    1.000
    Si5558   Si       0.94243    0.25273    0.12734    1.000
    N5559    N        0.96588    0.15344    0.22476    1.000
    Si5560   Si       0.96161    0.13872    0.12790    1.000
    Si5561   Si       0.96577    0.03486    0.29155    1.000
    N5562    N        0.94259    0.03614    0.33074    1.000
    N5563    N        0.95764    0.10086    0.34681    1.000
    Si5564   Si       0.96109    0.10951    0.30457    1.000
    Si5565   Si       0.96623    0.05863    0.35912    1.000
    N5566    N        0.98382    0.07554    0.28838    1.000
    N5567    N        0.93401    0.04108    0.26181    1.000
    N5568    N        0.97744    0.14820    0.30053    1.000
    Si5569   Si       0.96097    0.24309    0.35006    1.000
    N5570    N        0.95405    0.22260    0.31210    1.000
    Si5571   Si       0.94959    0.17949    0.31311    1.000
    N5572    N        0.94499    0.17036    0.35652    1.000
    Si5573   Si       0.96823    0.13529    0.37013    1.000
    N5574    N        0.96836    0.03464    0.39466    1.000
    Si5575   Si       0.96857    0.03859    0.43768    1.000
    N5576    N        0.96116    0.11494    0.48589    1.000
    Si5577   Si       0.93423    0.08084    0.48680    1.000
    Si5578   Si       0.96402    0.14612    0.45516    1.000
    N5579    N        0.95470    0.18932    0.45388    1.000
    Si5580   Si       0.95391    0.25199    0.41821    1.000
    N5581    N        0.94236    0.22803    0.38599    1.000
    N5582    N        0.96951    0.13298    0.41374    1.000
    Si5583   Si       0.95285    0.06475    0.56122    1.000
    N5584    N        0.96812    0.03243    0.58644    1.000
    Si5585   Si       0.97066    0.12512    0.52849    1.000
    N5586    N        0.94289    0.05085    0.51966    1.000
    N5587    N        0.98846    0.09036    0.54788    1.000
    N5588    N        0.92955    0.13020    0.54274    1.000
    N5589    N        0.96906    0.16032    0.59482    1.000
    Si5590   Si       0.94461    0.23292    0.55015    1.000
    N5591    N        0.98706    0.23933    0.55035    1.000
    Si5592   Si       0.93301    0.16414    0.57011    1.000
    Si5593   Si       0.96540    0.07078    0.74522    1.000
    Si5594   Si       0.98783    0.04019    0.62593    1.000
    N5595    N        0.97812    0.08181    0.63358    1.000
    N5596    N        0.94236    0.10177    0.72548    1.000
    Si5597   Si       0.93501    0.09026    0.63278    1.000
    Si5598   Si       0.96319    0.15811    0.63979    1.000
    N5599    N        0.95793    0.24235    0.71287    1.000
    N5600    N        0.93589    0.17975    0.72656    1.000
    Si5601   Si       0.95554    0.22991    0.62888    1.000
    Si5602   Si       0.96545    0.20170    0.70095    1.000
    N5603    N        0.95907    0.19743    0.65671    1.000
    N5604    N        0.97377    0.08723    0.78527    1.000
    Si5605   Si       0.97833    0.02321    0.84979    1.000
    N5606    N        0.93997    0.03287    0.75106    1.000
    Si5607   Si       0.96498    0.09359    0.87181    1.000
    N5608    N        0.98900    0.06640    0.84672    1.000
    N5609    N        0.93320    0.10631    0.84425    1.000
    N5610    N        0.97962    0.19475    0.83873    1.000
    Si5611   Si       0.94221    0.20704    0.85299    1.000
    N5612    N        0.97950    0.24365    0.78161    1.000
    N5613    N        0.98420    0.01276    0.94028    1.000
    N5614    N        0.98577    0.12875    0.88220    1.000
    N5615    N        0.98288    0.08276    0.96636    1.000
    N5616    N        0.95238    0.07439    0.90829    1.000
    Si5617   Si       0.94837    0.09774    0.94402    1.000
    Si5618   Si       0.95225    0.02851    0.91651    1.000
    N5619    N        0.94343    0.01271    0.87645    1.000
    N5620    N        0.93336    0.24199    0.87791    1.000
    Si5621   Si       0.94770    0.15744    0.98216    1.000
    Si5622   Si       0.98813    0.21140    0.95581    1.000
    Si5623   Si       0.96588    0.15866    0.90456    1.000
    N5624    N        0.93329    0.17396    0.88096    1.000
    N5625    N        0.95164    0.14084    0.94189    1.000
    N5626    N        0.96652    0.19536    0.99034    1.000
    N5627    N        0.97398    0.24746    0.93874    1.000
    Si5628   Si       0.93294    0.24205    0.92393    1.000
    N5629    N        0.96169    0.32064    0.04442    1.000
    Si5630   Si       0.95011    0.29309    0.01390    1.000
    N5631    N        0.97544    0.36252    0.08927    1.000
    N5632    N        0.98139    0.25950    0.01270    1.000
    Si5633   Si       0.94064    0.34956    0.06781    1.000
    N5634    N        0.96304    0.45418    0.04922    1.000
    N5635    N        0.95689    0.48906    0.11012    1.000
    Si5636   Si       0.93700    0.42117    0.03464    1.000
    N5637    N        0.97073    0.40930    0.00406    1.000
    Si5638   Si       0.93412    0.47219    0.07523    1.000
    N5639    N        0.95740    0.29434    0.12584    1.000
    N5640    N        0.94045    0.33100    0.21688    1.000
    N5641    N        0.95251    0.36244    0.15461    1.000
    Si5642   Si       0.94152    0.36865    0.19756    1.000
    N5643    N        0.98593    0.26931    0.20776    1.000
    Si5644   Si       0.94847    0.26034    0.22853    1.000
    Si5645   Si       0.98737    0.37050    0.13067    1.000
    Si5646   Si       0.93018    0.32645    0.13519    1.000
    Si5647   Si       0.98092    0.42378    0.17783    1.000
    Si5648   Si       0.94260    0.48498    0.15152    1.000
    N5649    N        0.94447    0.44036    0.15929    1.000
    N5650    N        0.97487    0.50028    0.17533    1.000
    N5651    N        0.96919    0.39949    0.21189    1.000
    Si5652   Si       0.95355    0.32123    0.32934    1.000
    N5653    N        0.95261    0.28570    0.26375    1.000
    N5654    N        0.95203    0.36833    0.27055    1.000
    N5655    N        0.94490    0.27945    0.33383    1.000
    Si5656   Si       0.96451    0.32969    0.25520    1.000
    N5657    N        0.96176    0.34855    0.36414    1.000
    Si5658   Si       0.93807    0.26021    0.29505    1.000
    Si5659   Si       0.98244    0.47256    0.30202    1.000
    N5660    N        0.96321    0.44353    0.27166    1.000
    N5661    N        0.96608    0.46853    0.34329    1.000
    Si5662   Si       0.97415    0.40363    0.25523    1.000
    N5663    N        0.93788    0.49778    0.29447    1.000
    Si5664   Si       0.94234    0.36202    0.46083    1.000
    N5665    N        0.94698    0.29380    0.40991    1.000
    N5666    N        0.97148    0.36006    0.42791    1.000
    Si5667   Si       0.97319    0.32618    0.39938    1.000
    N5668    N        0.98402    0.28170    0.49239    1.000
    N5669    N        0.96354    0.43461    0.44417    1.000
    N5670    N        0.93270    0.41134    0.38610    1.000
    Si5671   Si       0.96809    0.38532    0.38454    1.000
    N5672    N        0.94541    0.50191    0.44445    1.000
    Si5673   Si       0.97887    0.47622    0.43790    1.000
    N5674    N        0.97825    0.31866    0.61329    1.000
    N5675    N        0.96304    0.36119    0.49974    1.000
    Si5676   Si       0.98709    0.32400    0.50465    1.000
    N5677    N        0.98955    0.37580    0.56823    1.000
    Si5678   Si       0.96264    0.38635    0.53654    1.000
    Si5679   Si       0.97199    0.45387    0.55050    1.000
    N5680    N        0.97545    0.42548    0.52054    1.000
    N5681    N        0.96175    0.49885    0.60493    1.000
    N5682    N        0.92950    0.46513    0.54315    1.000
    N5683    N        0.98818    0.49591    0.53994    1.000
    N5684    N        0.98521    0.44016    0.58964    1.000
    N5685    N        0.94553    0.37161    0.64579    1.000
    Si5686   Si       0.94050    0.27371    0.68708    1.000
    N5687    N        0.97146    0.30357    0.67510    1.000
    Si5688   Si       0.94930    0.32835    0.64603    1.000
    N5689    N        0.98334    0.35496    0.72881    1.000
    N5690    N        0.93158    0.26169    0.64573    1.000
    Si5691   Si       0.98049    0.46046    0.69526    1.000
    Si5692   Si       0.97604    0.46352    0.62508    1.000
    N5693    N        0.97798    0.41807    0.69749    1.000
    Si5694   Si       0.96871    0.40438    0.65895    1.000
    N5695    N        0.94541    0.44104    0.64880    1.000
    N5696    N        0.94241    0.48112    0.70159    1.000
    N5697    N        0.94707    0.31226    0.85567    1.000
    Si5698   Si       0.96253    0.33910    0.76340    1.000
    N5699    N        0.98930    0.35688    0.79661    1.000
    Si5700   Si       0.95206    0.25805    0.75382    1.000
    N5701    N        0.96181    0.29911    0.74487    1.000
    N5702    N        0.98865    0.46999    0.80080    1.000
    Si5703   Si       0.98650    0.40106    0.80126    1.000
    Si5704   Si       0.94575    0.45587    0.79493    1.000
    N5705    N        0.94594    0.41539    0.80855    1.000
    N5706    N        0.93129    0.32171    0.98524    1.000
    Si5707   Si       0.97849    0.36878    0.93485    1.000
    N5708    N        0.96565    0.32840    0.92262    1.000
    Si5709   Si       0.97989    0.31834    0.88338    1.000
    N5710    N        0.93860    0.38307    0.94923    1.000
    Si5711   Si       0.92877    0.31791    0.94297    1.000
    N5712    N        0.98552    0.46866    0.88287    1.000
    Si5713   Si       0.98112    0.44567    0.92002    1.000
    Si5714   Si       0.94188    0.41972    0.97266    1.000
    N5715    N        0.94388    0.44843    0.94074    1.000
    N5716    N        0.97382    0.61334    0.03841    1.000
    N5717    N        0.97071    0.54842    0.07183    1.000
    Si5718   Si       0.98782    0.51760    0.10056    1.000
    Si5719   Si       0.99200    0.64852    0.01359    1.000
    N5720    N        0.97134    0.68185    0.03335    1.000
    N5721    N        0.96119    0.73831    0.06650    1.000
    Si5722   Si       0.95356    0.51858    0.21443    1.000
    N5723    N        0.96510    0.55782    0.19508    1.000
    Si5724   Si       0.94154    0.58054    0.22381    1.000
    N5725    N        0.92903    0.54344    0.24467    1.000
    N5726    N        0.97500    0.65459    0.21378    1.000
    N5727    N        0.95446    0.66439    0.15019    1.000
    N5728    N        0.93427    0.72267    0.18760    1.000
    Si5729   Si       0.95227    0.73734    0.15029    1.000
    Si5730   Si       0.94752    0.67872    0.19106    1.000
    N5731    N        0.96346    0.56308    0.30702    1.000
    Si5732   Si       0.95641    0.56119    0.35154    1.000
    N5733    N        0.98641    0.62871    0.36660    1.000
    Si5734   Si       0.98793    0.58834    0.28298    1.000
    N5735    N        0.96283    0.60451    0.25157    1.000
    Si5736   Si       0.97392    0.64784    0.26069    1.000
    N5737    N        0.94681    0.67237    0.34074    1.000
    N5738    N        0.96215    0.73189    0.31299    1.000
    Si5739   Si       0.97476    0.70444    0.34629    1.000
    Si5740   Si       0.94319    0.63789    0.36634    1.000
    N5741    N        0.93151    0.65841    0.27084    1.000
    Si5742   Si       0.95022    0.53222    0.47396    1.000
    Si5743   Si       0.94123    0.60529    0.48811    1.000
    N5744    N        0.98539    0.60886    0.49109    1.000
    N5745    N        0.93579    0.57022    0.46244    1.000
    Si5746   Si       0.95110    0.73983    0.41475    1.000
    N5747    N        0.98211    0.65985    0.43109    1.000
    N5748    N        0.97901    0.72948    0.38156    1.000
    Si5749   Si       0.98768    0.68886    0.46015    1.000
    N5750    N        0.97070    0.72813    0.45121    1.000
    N5751    N        0.96040    0.54595    0.55996    1.000
    N5752    N        0.94425    0.60571    0.59174    1.000
    N5753    N        0.93368    0.62386    0.52707    1.000
    Si5754   Si       0.98396    0.62559    0.58908    1.000
    Si5755   Si       0.98855    0.51958    0.57738    1.000
    Si5756   Si       0.93805    0.51004    0.54571    1.000
    N5757    N        0.96515    0.72119    0.57295    1.000
    N5758    N        0.97191    0.67388    0.49879    1.000
    N5759    N        0.95502    0.75781    0.51776    1.000
    Si5760   Si       0.93037    0.66221    0.50711    1.000
    N5761    N        0.95215    0.59353    0.67762    1.000
    Si5762   Si       0.93569    0.60540    0.71432    1.000
    Si5763   Si       0.93256    0.59575    0.63848    1.000
    Si5764   Si       0.97314    0.70812    0.70507    1.000
    N5765    N        0.97636    0.65247    0.62485    1.000
    N5766    N        0.96495    0.74937    0.69111    1.000
    N5767    N        0.95538    0.63737    0.73530    1.000
    N5768    N        0.93343    0.69096    0.70150    1.000
    Si5769   Si       0.93451    0.66265    0.62000    1.000
    N5770    N        0.96063    0.55880    0.81034    1.000
    Si5771   Si       0.97083    0.62411    0.77426    1.000
    N5772    N        0.95582    0.51679    0.76347    1.000
    N5773    N        0.93677    0.62157    0.80045    1.000
    Si5774   Si       0.96259    0.51167    0.80697    1.000
    Si5775   Si       0.97186    0.55556    0.75014    1.000
    N5776    N        0.93209    0.57416    0.74198    1.000
    Si5777   Si       0.97563    0.67383    0.82693    1.000
    Si5778   Si       0.96755    0.73564    0.77813    1.000
    N5779    N        0.98416    0.71028    0.74744    1.000
    N5780    N        0.93313    0.68009    0.82900    1.000
    Si5781   Si       0.98443    0.51160    0.88261    1.000
    N5782    N        0.94954    0.60165    0.92407    1.000
    N5783    N        0.96950    0.52625    0.97906    1.000
    Si5784   Si       0.98191    0.61616    0.94755    1.000
    N5785    N        0.94814    0.53663    0.89077    1.000
    Si5786   Si       0.95112    0.57981    0.88575    1.000
    Si5787   Si       0.93310    0.72745    0.90490    1.000
    N5788    N        0.97055    0.73537    0.88201    1.000
    N5789    N        0.93255    0.68771    0.91932    1.000
    N5790    N        0.97496    0.64806    0.97348    1.000
    Si5791   Si       0.94132    0.67193    0.96086    1.000
    N5792    N        0.96524    0.80912    0.09500    1.000
    Si5793   Si       0.98325    0.77411    0.07449    1.000
    N5794    N        0.93262    0.77680    0.99855    1.000
    N5795    N        0.98948    0.87715    0.09947    1.000
    Si5796   Si       0.96821    0.85528    0.00055    1.000
    N5797    N        0.95673    0.94080    0.10841    1.000
    N5798    N        0.97206    0.92578    0.04232    1.000
    Si5799   Si       0.93797    0.94044    0.06658    1.000
    Si5800   Si       0.95693    0.93011    0.00125    1.000
    N5801    N        0.92914    0.98228    0.05502    1.000
    N5802    N        0.95155    0.77865    0.15594    1.000
    N5803    N        0.96664    0.84323    0.17851    1.000
    Si5804   Si       0.98612    0.80480    0.16707    1.000
    N5805    N        0.98540    0.88544    0.22691    1.000
    N5806    N        0.94009    0.97350    0.23966    1.000
    Si5807   Si       0.98102    0.94568    0.18324    1.000
    Si5808   Si       0.96705    0.90366    0.12468    1.000
    Si5809   Si       0.97947    0.99080    0.23538    1.000
    N5810    N        0.94043    0.95674    0.17738    1.000
    Si5811   Si       0.95764    0.97221    0.13707    1.000
    N5812    N        0.98761    0.90841    0.16274    1.000
    N5813    N        0.96039    0.82803    0.27311    1.000
    Si5814   Si       0.94866    0.78855    0.25839    1.000
    N5815    N        0.93654    0.81111    0.33530    1.000
    Si5816   Si       0.93904    0.84164    0.30601    1.000
    Si5817   Si       0.96199    0.80600    0.37006    1.000
    N5818    N        0.94718    0.88133    0.31730    1.000
    N5819    N        0.98590    0.76641    0.25877    1.000
    Si5820   Si       0.93860    0.94444    0.26957    1.000
    Si5821   Si       0.93948    0.98901    0.33856    1.000
    N5822    N        0.97975    0.93702    0.28179    1.000
    N5823    N        0.98381    0.98765    0.34003    1.000
    N5824    N        0.93320    0.95700    0.37117    1.000
    Si5825   Si       0.97677    0.75855    0.48101    1.000
    N5826    N        0.94256    0.78099    0.40239    1.000
    N5827    N        0.97162    0.83583    0.40197    1.000
    Si5828   Si       0.95066    0.81391    0.43280    1.000
    N5829    N        0.97934    0.79663    0.46096    1.000
    N5830    N        0.95547    0.87886    0.47738    1.000
    Si5831   Si       0.97073    0.93875    0.38037    1.000
    N5832    N        0.97182    0.90205    0.40651    1.000
    Si5833   Si       0.96544    0.91164    0.44989    1.000
    N5834    N        0.96727    0.00010    0.45781    1.000
    Si5835   Si       0.95128    0.86774    0.58605    1.000
    N5836    N        0.96900    0.82709    0.58918    1.000
    N5837    N        0.93492    0.77314    0.58935    1.000
    N5838    N        0.93941    0.87087    0.54601    1.000
    Si5839   Si       0.97232    0.87578    0.51774    1.000
    Si5840   Si       0.95878    0.79742    0.61820    1.000
    Si5841   Si       0.96558    0.76139    0.55833    1.000
    Si5842   Si       0.96278    0.99371    0.56553    1.000
    N5843    N        0.97231    0.95995    0.58872    1.000
    N5844    N        0.98020    0.99107    0.52610    1.000
    N5845    N        0.98816    0.89130    0.58952    1.000
    Si5846   Si       0.94354    0.00894    0.50870    1.000
    N5847    N        0.93727    0.80655    0.65396    1.000
    N5848    N        0.96714    0.87116    0.67327    1.000
    Si5849   Si       0.97336    0.87891    0.71831    1.000
    Si5850   Si       0.93168    0.84975    0.65994    1.000
    Si5851   Si       0.93042    0.77508    0.68567    1.000
    N5852    N        0.98813    0.94057    0.65929    1.000
    N5853    N        0.93977    0.89809    0.73500    1.000
    N5854    N        0.95861    0.97888    0.70782    1.000
    N5855    N        0.98059    0.00418    0.64905    1.000
    Si5856   Si       0.96415    0.96569    0.63123    1.000
    Si5857   Si       0.94663    0.82826    0.83004    1.000
    N5858    N        0.94304    0.79137    0.85257    1.000
    N5859    N        0.97627    0.77847    0.77455    1.000
    N5860    N        0.94387    0.86366    0.85612    1.000
    Si5861   Si       0.98255    0.77486    0.86560    1.000
    Si5862   Si       0.93409    0.78808    0.76596    1.000
    N5863    N        0.94038    0.95974    0.77082    1.000
    N5864    N        0.94474    0.93419    0.83433    1.000
    N5865    N        0.97851    0.90102    0.79139    1.000
    Si5866   Si       0.93997    0.91587    0.77494    1.000
    Si5867   Si       0.93665    0.97056    0.81395    1.000
    Si5868   Si       0.98707    0.91796    0.83027    1.000
    N5869    N        0.96380    0.00423    0.81523    1.000
    Si5870   Si       0.95899    0.99367    0.75156    1.000
    Si5871   Si       0.97678    0.78296    0.99540    1.000
    N5872    N        0.93980    0.82202    0.92032    1.000
    N5873    N        0.98291    0.82098    0.97717    1.000
    Si5874   Si       0.98333    0.81831    0.93300    1.000
    Si5875   Si       0.96713    0.87652    0.89060    1.000
    N5876    N        0.94963    0.90829    0.91487    1.000
    Si5877   Si       0.98026    0.91440    0.94451    1.000
    N5878    N        0.97899    0.95386    0.97167    1.000
    N5879    N        0.96856    0.89382    0.98010    1.000
