# CIF file generated by openbabel 3.1.1, see https://openbabel.org
data_I
_chemical_name_common '3.01-64.aims'
_cell_length_a 39.9248
_cell_length_b 39.9248
_cell_length_c 39.9248
_cell_angle_alpha 90
_cell_angle_beta 90
_cell_angle_gamma 90
loop_
    _atom_site_label
    _atom_site_type_symbol
    _atom_site_fract_x
    _atom_site_fract_y
    _atom_site_fract_z
    _atom_site_occupancy
    N0       N        0.07783    0.02318    0.08685    1.000
    N1       N        0.01845    0.05497    0.02142    1.000
    Si2      Si       0.06619    0.06094    0.10804    1.000
    Si3      Si       0.03772    0.01735    0.00600    1.000
    Si4      Si       0.10831    0.04987    0.00408    1.000
    Si5      Si       0.12036    0.02393    0.07713    1.000
    N6       N        0.12810    0.04471    0.04103    1.000
    N7       N        0.14246    0.04039    0.10988    1.000
    N8       N        0.19851    0.04972    0.04781    1.000
    Si9      Si       0.21396    0.01923    0.01901    1.000
    Si10     Si       0.22857    0.06441    0.08186    1.000
    N11      N        0.02374    0.05313    0.11664    1.000
    N12      N        0.01931    0.03092    0.17588    1.000
    Si13     Si       0.00580    0.01582    0.13555    1.000
    N14      N        0.02732    0.01650    0.24143    1.000
    N15      N        0.09655    0.01170    0.23316    1.000
    Si16     Si       0.04237    0.06628    0.17380    1.000
    N17      N        0.07958    0.06584    0.14962    1.000
    Si18     Si       0.21033    0.05807    0.15946    1.000
    N19      N        0.18348    0.02532    0.16275    1.000
    N20      N        0.22965    0.01353    0.22050    1.000
    N21      N        0.16324    0.02461    0.23131    1.000
    Si22     Si       0.01500    0.05643    0.36154    1.000
    N23      N        0.09045    0.05454    0.34610    1.000
    N24      N        0.01688    0.01524    0.35237    1.000
    Si25     Si       0.02948    0.05849    0.24990    1.000
    Si26     Si       0.10998    0.02186    0.32650    1.000
    N27      N        0.06570    0.06761    0.27292    1.000
    N28      N        0.13667    0.03366    0.29233    1.000
    N29      N        0.21400    0.05044    0.29704    1.000
    Si30     Si       0.21492    0.05544    0.33997    1.000
    Si31     Si       0.17152    0.06098    0.29395    1.000
    N32      N        0.20053    0.02009    0.36194    1.000
    Si33     Si       0.13076    0.00745    0.25584    1.000
    N34      N        0.04195    0.05834    0.39503    1.000
    N35      N        0.10090    0.04026    0.41811    1.000
    N36      N        0.05354    0.05197    0.46364    1.000
    Si37     Si       0.06966    0.01866    0.43766    1.000
    Si38     Si       0.03502    0.02783    0.49550    1.000
    Si39     Si       0.16030    0.04063    0.36936    1.000
    N40      N        0.18418    0.04813    0.46996    1.000
    N41      N        0.12092    0.05638    0.47794    1.000
    Si42     Si       0.13786    0.03945    0.44001    1.000
    N43      N        0.16279    0.06088    0.40731    1.000
    N44      N        0.01427    0.02395    0.57660    1.000
    Si45     Si       0.09536    0.03751    0.60974    1.000
    Si46     Si       0.03406    0.03665    0.61350    1.000
    N47      N        0.10200    0.04029    0.56716    1.000
    N48      N        0.99762    0.04393    0.50582    1.000
    Si49     Si       0.20007    0.05104    0.56113    1.000
    N50      N        0.16670    0.03784    0.53483    1.000
    N51      N        0.22539    0.01338    0.56006    1.000
    Si52     Si       0.13370    0.01315    0.55443    1.000
    Si53     Si       0.15742    0.06096    0.50068    1.000
    N54      N        0.00949    0.04363    0.64922    1.000
    N55      N        0.02721    0.02010    0.72423    1.000
    Si56     Si       0.00922    0.01847    0.68315    1.000
    N57      N        0.09354    0.04225    0.73788    1.000
    Si58     Si       0.05013    0.05473    0.74201    1.000
    N59      N        0.06733    0.00721    0.62519    1.000
    N60      N        0.19027    0.00619    0.64643    1.000
    Si61     Si       0.16111    0.05944    0.71142    1.000
    Si62     Si       0.16372    0.03516    0.62367    1.000
    N63      N        0.14688    0.02125    0.69672    1.000
    N64      N        0.23455    0.02628    0.69377    1.000
    N65      N        0.12587    0.05158    0.63599    1.000
    N66      N        0.06818    0.04925    0.85672    1.000
    Si67     Si       0.03624    0.04206    0.82759    1.000
    Si68     Si       0.10312    0.03413    0.83553    1.000
    N69      N        0.04649    0.06136    0.78552    1.000
    Si70     Si       0.11697    0.06124    0.77165    1.000
    N71      N        0.21876    0.01951    0.76217    1.000
    Si72     Si       0.18397    0.03569    0.78045    1.000
    N73      N        0.15589    0.05489    0.75374    1.000
    N74      N        0.12960    0.01017    0.86136    1.000
    Si75     Si       0.00643    0.04920    0.94425    1.000
    N76      N        0.04552    0.04952    0.92624    1.000
    Si77     Si       0.08349    0.04181    0.94681    1.000
    N78      N        0.10865    0.05716    0.91168    1.000
    N79      N        0.07887    0.02002    0.99135    1.000
    N80      N        0.01366    0.01163    0.96912    1.000
    Si81     Si       0.06944    0.07176    0.89460    1.000
    N82      N        0.22374    0.03529    0.88163    1.000
    N83      N        0.20716    0.01568    0.97647    1.000
    Si84     Si       0.12868    0.01886    0.90397    1.000
    N85      N        0.13908    0.03948    0.97011    1.000
    N86      N        0.16700    0.00455    0.91650    1.000
    N87      N        0.06750    0.09644    0.08675    1.000
    Si88     Si       0.01541    0.09619    0.00577    1.000
    N89      N        0.05302    0.11695    0.01705    1.000
    N90      N        0.99956    0.12102    0.09556    1.000
    Si91     Si       0.06908    0.12748    0.05643    1.000
    N92      N        0.15366    0.09659    0.00336    1.000
    N93      N        0.16022    0.10158    0.07308    1.000
    Si94     Si       0.16298    0.07821    0.11032    1.000
    Si95     Si       0.16297    0.07209    0.03901    1.000
    N96      N        0.20477    0.07412    0.11756    1.000
    Si97     Si       0.00238    0.08887    0.12446    1.000
    Si98     Si       0.08802    0.08579    0.23680    1.000
    N99      N        0.02151    0.10264    0.16100    1.000
    Si100    Si       0.10831    0.09347    0.16641    1.000
    N101     N        0.04946    0.07830    0.21528    1.000
    Si102    Si       0.17801    0.11441    0.16809    1.000
    Si103    Si       0.16146    0.06715    0.22160    1.000
    N104     N        0.18837    0.08159    0.19141    1.000
    N105     N        0.14406    0.10028    0.14209    1.000
    N106     N        0.12067    0.07994    0.20837    1.000
    Si107    Si       0.06937    0.07784    0.31531    1.000
    N108     N        0.02779    0.08325    0.32906    1.000
    Si109    Si       0.00544    0.10720    0.30100    1.000
    N110     N        0.09042    0.11472    0.31852    1.000
    N111     N        0.99575    0.07527    0.26997    1.000
    N112     N        0.09178    0.12598    0.24959    1.000
    N113     N        0.16886    0.08910    0.26024    1.000
    Si114    Si       0.18163    0.10953    0.35151    1.000
    N115     N        0.22139    0.09236    0.36172    1.000
    N116     N        0.16905    0.06935    0.33820    1.000
    N117     N        0.08957    0.10773    0.38895    1.000
    N118     N        0.03671    0.11380    0.43703    1.000
    Si119    Si       0.08374    0.07639    0.48568    1.000
    N120     N        0.99586    0.10776    0.48685    1.000
    Si121    Si       0.02926    0.07261    0.43390    1.000
    N122     N        0.09706    0.11868    0.48927    1.000
    Si123    Si       0.08391    0.06526    0.38678    1.000
    N124     N        0.16986    0.11690    0.44425    1.000
    N125     N        0.23383    0.08339    0.42947    1.000
    Si126    Si       0.19137    0.07844    0.43758    1.000
    N127     N        0.10230    0.10987    0.56158    1.000
    Si128    Si       0.02093    0.10306    0.52097    1.000
    N129     N        0.05887    0.07615    0.52245    1.000
    N130     N        0.99832    0.08951    0.55508    1.000
    Si131    Si       0.07601    0.07467    0.56323    1.000
    N132     N        0.06308    0.06876    0.60477    1.000
    N133     N        0.01477    0.11008    0.62121    1.000
    Si134    Si       0.17705    0.10696    0.60389    1.000
    N135     N        0.22016    0.08393    0.54624    1.000
    N136     N        0.16235    0.10292    0.50888    1.000
    Si137    Si       0.19454    0.11571    0.53538    1.000
    N138     N        0.13678    0.11545    0.61913    1.000
    N139     N        0.18397    0.06388    0.60008    1.000
    Si140    Si       0.05774    0.11096    0.62538    1.000
    N141     N        0.07972    0.10221    0.66213    1.000
    N142     N        0.04085    0.09300    0.72436    1.000
    Si143    Si       0.00386    0.10646    0.74071    1.000
    Si144    Si       0.06227    0.11903    0.69709    1.000
    Si145    Si       0.23937    0.06844    0.69944    1.000
    Si146    Si       0.12182    0.09094    0.65322    1.000
    Si147    Si       0.17707    0.11940    0.70233    1.000
    N148     N        0.19919    0.08122    0.70594    1.000
    N149     N        0.14221    0.09383    0.69038    1.000
    N150     N        0.20923    0.12150    0.63073    1.000
    Si151    Si       0.03413    0.09777    0.80650    1.000
    N152     N        0.01178    0.07799    0.83617    1.000
    N153     N        0.06839    0.11785    0.82419    1.000
    Si154    Si       0.10784    0.11635    0.80928    1.000
    N155     N        0.10521    0.10240    0.76632    1.000
    N156     N        0.00971    0.11957    0.78073    1.000
    Si157    Si       0.99502    0.11236    0.87064    1.000
    Si158    Si       0.15915    0.08159    0.82925    1.000
    Si159    Si       0.23512    0.07830    0.81914    1.000
    N160     N        0.23431    0.09672    0.85961    1.000
    N161     N        0.19475    0.06847    0.80909    1.000
    N162     N        0.14842    0.12308    0.82366    1.000
    N163     N        0.12279    0.06811    0.81386    1.000
    N164     N        0.10127    0.10978    0.88027    1.000
    N165     N        0.09253    0.07958    0.97447    1.000
    N166     N        0.00925    0.09071    0.96272    1.000
    N167     N        0.03856    0.10516    0.89231    1.000
    Si168    Si       0.02187    0.11841    0.93178    1.000
    Si169    Si       0.07798    0.12118    0.98260    1.000
    N170     N        0.16627    0.07316    0.87292    1.000
    N171     N        0.15229    0.10581    0.93121    1.000
    Si172    Si       0.13796    0.08310    0.96533    1.000
    Si173    Si       0.20798    0.07476    0.88520    1.000
    N174     N        0.21495    0.09371    0.92425    1.000
    Si175    Si       0.13493    0.08902    0.89694    1.000
    N176     N        0.04677    0.16382    0.07271    1.000
    Si177    Si       0.01499    0.16082    0.10444    1.000
    N178     N        0.10967    0.13517    0.04283    1.000
    N179     N        0.13567    0.17810    0.08840    1.000
    N180     N        0.16954    0.15596    0.03665    1.000
    Si181    Si       0.14388    0.14204    0.07110    1.000
    Si182    Si       0.13874    0.13709    0.01124    1.000
    Si183    Si       0.20762    0.17626    0.03718    1.000
    N184     N        0.24098    0.14776    0.03232    1.000
    N185     N        0.02408    0.15767    0.20756    1.000
    N186     N        0.02702    0.16708    0.14520    1.000
    Si187    Si       0.04287    0.13552    0.17466    1.000
    N188     N        0.08670    0.13304    0.17325    1.000
    N189     N        0.10964    0.18604    0.21803    1.000
    N190     N        0.15706    0.15118    0.18214    1.000
    Si191    Si       0.11425    0.16486    0.18006    1.000
    N192     N        0.21387    0.13810    0.15751    1.000
    Si193    Si       0.19223    0.17359    0.16990    1.000
    Si194    Si       0.23419    0.16193    0.22722    1.000
    N195     N        0.02963    0.13459    0.27866    1.000
    N196     N        0.09391    0.17527    0.35357    1.000
    Si197    Si       0.07162    0.13844    0.28683    1.000
    N198     N        0.09196    0.17775    0.28487    1.000
    Si199    Si       0.10844    0.13366    0.35579    1.000
    Si200    Si       0.00870    0.16011    0.24823    1.000
    Si201    Si       0.11486    0.16203    0.25220    1.000
    N202     N        0.22363    0.12938    0.25219    1.000
    N203     N        0.15653    0.15938    0.26398    1.000
    Si204    Si       0.21756    0.16903    0.32337    1.000
    N205     N        0.19296    0.13398    0.31677    1.000
    Si206    Si       0.18453    0.12793    0.27318    1.000
    N207     N        0.00113    0.17412    0.44665    1.000
    N208     N        0.06016    0.17406    0.41563    1.000
    Si209    Si       0.07442    0.13332    0.42227    1.000
    Si210    Si       0.99784    0.13142    0.44982    1.000
    N211     N        0.14912    0.12947    0.37159    1.000
    N212     N        0.11455    0.14877    0.43602    1.000
    Si213    Si       0.15317    0.14238    0.41335    1.000
    N214     N        0.14830    0.16822    0.49563    1.000
    Si215    Si       0.14134    0.12797    0.47663    1.000
    N216     N        0.03940    0.14052    0.53028    1.000
    N217     N        0.09751    0.17059    0.54144    1.000
    N218     N        0.07630    0.14799    0.61343    1.000
    Si219    Si       0.08444    0.13153    0.52896    1.000
    Si220    Si       0.02086    0.18052    0.52515    1.000
    Si221    Si       0.11393    0.14320    0.59122    1.000
    N222     N        0.17952    0.13390    0.57045    1.000
    N223     N        0.21516    0.14822    0.51437    1.000
    Si224    Si       0.17856    0.17564    0.58391    1.000
    N225     N        0.13695    0.18002    0.59612    1.000
    Si226    Si       0.18602    0.17912    0.51017    1.000
    N227     N        0.03970    0.15473    0.68531    1.000
    N228     N        0.09011    0.14826    0.72101    1.000
    Si229    Si       0.07068    0.18177    0.70203    1.000
    Si230    Si       0.00848    0.18121    0.67005    1.000
    N231     N        0.15855    0.14076    0.73449    1.000
    Si232    Si       0.21789    0.16116    0.65261    1.000
    N233     N        0.20995    0.14479    0.69183    1.000
    Si234    Si       0.24219    0.13598    0.72090    1.000
    N235     N        0.00204    0.14681    0.84352    1.000
    Si236    Si       0.06503    0.12719    0.86518    1.000
    N237     N        0.11422    0.15892    0.78990    1.000
    Si238    Si       0.02666    0.18234    0.84621    1.000
    N239     N        0.22654    0.15109    0.75815    1.000
    Si240    Si       0.14908    0.16679    0.81958    1.000
    N241     N        0.17821    0.17604    0.85223    1.000
    Si242    Si       0.18671    0.16957    0.74932    1.000
    Si243    Si       0.11798    0.13913    0.75009    1.000
    N244     N        0.24175    0.15978    0.83035    1.000
    N245     N        0.05843    0.16985    0.87201    1.000
    N246     N        0.04968    0.14337    0.95595    1.000
    N247     N        0.11391    0.14422    0.97766    1.000
    Si248    Si       0.18986    0.12832    0.93434    1.000
    N249     N        0.11875    0.18082    0.91368    1.000
    N250     N        0.20742    0.14478    0.96954    1.000
    N251     N        0.18494    0.16642    0.91403    1.000
    N252     N        0.08685    0.21159    0.03798    1.000
    Si253    Si       0.04490    0.19856    0.04678    1.000
    N254     N        0.02893    0.23274    0.06810    1.000
    N255     N        0.02588    0.19374    0.00813    1.000
    Si256    Si       0.08255    0.23534    0.00081    1.000
    Si257    Si       0.99076    0.22753    0.08815    1.000
    N258     N        0.12389    0.23932    0.09773    1.000
    Si259    Si       0.12298    0.21483    0.06210    1.000
    N260     N        0.21231    0.20234    0.07082    1.000
    N261     N        0.15701    0.22900    0.03978    1.000
    N262     N        0.21225    0.20294    0.00380    1.000
    Si263    Si       0.19396    0.24100    0.06589    1.000
    Si264    Si       0.15625    0.23628    0.99680    1.000
    N265     N        0.03215    0.22706    0.17843    1.000
    Si266    Si       0.07605    0.22940    0.16604    1.000
    N267     N        0.10197    0.19641    0.15365    1.000
    Si268    Si       0.01145    0.18935    0.17773    1.000
    N269     N        0.23685    0.21479    0.13280    1.000
    N270     N        0.17003    0.20315    0.14485    1.000
    Si271    Si       0.19833    0.23385    0.13728    1.000
    Si272    Si       0.13324    0.20356    0.12377    1.000
    Si273    Si       0.12043    0.22833    0.22391    1.000
    N274     N        0.20724    0.18879    0.20705    1.000
    Si275    Si       0.20144    0.23106    0.21672    1.000
    N276     N        0.16433    0.22713    0.23692    1.000
    Si277    Si       0.00109    0.22471    0.29410    1.000
    N278     N        0.01373    0.20057    0.26194    1.000
    Si279    Si       0.99426    0.22465    0.36425    1.000
    N280     N        0.03922    0.22721    0.36553    1.000
    Si281    Si       0.10703    0.19910    0.31910    1.000
    N282     N        0.99177    0.19827    0.32790    1.000
    N283     N        0.09535    0.24076    0.33136    1.000
    Si284    Si       0.16914    0.20145    0.27061    1.000
    N285     N        0.14564    0.21838    0.30256    1.000
    Si286    Si       0.18615    0.22426    0.32792    1.000
    N287     N        0.20412    0.19851    0.29417    1.000
    N288     N        0.20574    0.19531    0.35621    1.000
    N289     N        0.15871    0.23601    0.36306    1.000
    Si290    Si       0.06920    0.23786    0.48545    1.000
    Si291    Si       0.06870    0.19764    0.37810    1.000
    Si292    Si       0.03999    0.19634    0.44844    1.000
    N293     N        0.10103    0.21930    0.40067    1.000
    N294     N        0.10038    0.20853    0.46603    1.000
    N295     N        0.04997    0.24058    0.44062    1.000
    N296     N        0.04303    0.19856    0.49276    1.000
    N297     N        0.99103    0.23087    0.40621    1.000
    N298     N        0.20671    0.21234    0.49217    1.000
    Si299    Si       0.11721    0.19143    0.42933    1.000
    Si300    Si       0.18607    0.21524    0.39235    1.000
    N301     N        0.16013    0.18759    0.41513    1.000
    Si302    Si       0.01498    0.21946    0.59675    1.000
    N303     N        0.08620    0.21913    0.59995    1.000
    N304     N        0.03517    0.20410    0.56136    1.000
    N305     N        0.09346    0.23066    0.52533    1.000
    Si306    Si       0.07889    0.20686    0.55981    1.000
    Si307    Si       0.11414    0.19328    0.50561    1.000
    N308     N        0.18192    0.20026    0.54886    1.000
    Si309    Si       0.13134    0.22086    0.60663    1.000
    Si310    Si       0.19214    0.23798    0.52751    1.000
    N311     N        0.20351    0.18566    0.61731    1.000
    N312     N        0.02785    0.20117    0.63612    1.000
    N313     N        0.06103    0.21801    0.72302    1.000
    N314     N        0.09193    0.19334    0.66668    1.000
    Si315    Si       0.02168    0.23732    0.72216    1.000
    N316     N        0.99666    0.20355    0.70683    1.000
    Si317    Si       0.10610    0.23348    0.67337    1.000
    Si318    Si       0.09146    0.23873    0.74245    1.000
    Si319    Si       0.07021    0.18901    0.62754    1.000
    N320     N        0.19032    0.21012    0.73177    1.000
    N321     N        0.12261    0.24433    0.71230    1.000
    N322     N        0.23345    0.20360    0.66907    1.000
    Si323    Si       0.22809    0.22000    0.62671    1.000
    N324     N        0.14203    0.23477    0.64715    1.000
    Si325    Si       0.22140    0.22629    0.70380    1.000
    Si326    Si       0.01618    0.21485    0.79422    1.000
    N327     N        0.00371    0.21751    0.83483    1.000
    N328     N        0.10258    0.22639    0.78320    1.000
    Si329    Si       0.09143    0.19276    0.80870    1.000
    N330     N        0.04832    0.18911    0.80818    1.000
    N331     N        0.11654    0.18864    0.84490    1.000
    Si332    Si       0.21350    0.19343    0.83331    1.000
    N333     N        0.21929    0.23030    0.80664    1.000
    Si334    Si       0.18850    0.22497    0.77712    1.000
    N335     N        0.17548    0.18363    0.78914    1.000
    N336     N        0.08315    0.20533    0.96870    1.000
    N337     N        0.01644    0.21073    0.95090    1.000
    Si338    Si       0.09257    0.19484    0.88247    1.000
    N339     N        0.08827    0.23725    0.89387    1.000
    Si340    Si       0.04602    0.18696    0.96728    1.000
    Si341    Si       0.22267    0.18465    0.90251    1.000
    N342     N        0.15753    0.23017    0.88943    1.000
    N343     N        0.15359    0.19835    0.97309    1.000
    N344     N        0.22560    0.20726    0.94000    1.000
    Si345    Si       0.15567    0.18519    0.88892    1.000
    N346     N        0.22411    0.21697    0.87194    1.000
    Si347    Si       0.19640    0.18659    0.96572    1.000
    Si348    Si       0.11814    0.18192    0.95606    1.000
    Si349    Si       0.03992    0.27246    0.05476    1.000
    Si350    Si       0.09993    0.27285    0.10545    1.000
    N351     N        0.05004    0.26439    0.01014    1.000
    N352     N        0.07349    0.29383    0.07397    1.000
    N353     N        0.00466    0.29877    0.06065    1.000
    N354     N        0.18999    0.26015    0.10538    1.000
    N355     N        0.21749    0.26816    0.04110    1.000
    Si356    Si       0.17092    0.29885    0.10907    1.000
    Si357    Si       0.22180    0.24537    0.00362    1.000
    N358     N        0.99327    0.25601    0.12185    1.000
    N359     N        0.06958    0.25811    0.13339    1.000
    Si360    Si       0.08219    0.27607    0.23175    1.000
    Si361    Si       0.02886    0.25780    0.14436    1.000
    N362     N        0.02317    0.28906    0.17406    1.000
    Si363    Si       0.01744    0.25936    0.20555    1.000
    N364     N        0.04122    0.27192    0.23916    1.000
    N365     N        0.09453    0.25109    0.19837    1.000
    N366     N        0.15504    0.28683    0.19477    1.000
    N367     N        0.23162    0.24659    0.24738    1.000
    N368     N        0.20891    0.25140    0.17721    1.000
    Si369    Si       0.19296    0.29303    0.17669    1.000
    Si370    Si       0.05414    0.25682    0.33707    1.000
    N371     N        0.02522    0.25965    0.30424    1.000
    Si372    Si       0.02508    0.29129    0.27413    1.000
    N373     N        0.10541    0.25116    0.26005    1.000
    N374     N        0.05894    0.29833    0.35120    1.000
    Si375    Si       0.23470    0.26728    0.28455    1.000
    Si376    Si       0.12174    0.25431    0.29723    1.000
    N377     N        0.20381    0.26129    0.31578    1.000
    N378     N        0.14226    0.28980    0.30911    1.000
    Si379    Si       0.17911    0.29413    0.33077    1.000
    Si380    Si       0.09103    0.25328    0.42972    1.000
    N381     N        0.09966    0.27185    0.46863    1.000
    N382     N        0.10662    0.27844    0.39628    1.000
    Si383    Si       0.01071    0.25708    0.43428    1.000
    Si384    Si       0.00499    0.28236    0.48789    1.000
    N385     N        0.01273    0.29903    0.44618    1.000
    Si386    Si       0.11895    0.24796    0.36897    1.000
    N387     N        0.21038    0.24718    0.41060    1.000
    Si388    Si       0.14132    0.28451    0.47669    1.000
    Si389    Si       0.19516    0.28704    0.41395    1.000
    N390     N        0.17015    0.29487    0.44732    1.000
    N391     N        0.03012    0.26010    0.60293    1.000
    N392     N        0.08854    0.29672    0.60466    1.000
    N393     N        0.04426    0.27123    0.50190    1.000
    Si394    Si       0.07056    0.25919    0.61391    1.000
    N395     N        0.10402    0.29923    0.53350    1.000
    Si396    Si       0.00710    0.29283    0.61912    1.000
    Si397    Si       0.07718    0.29827    0.50043    1.000
    Si398    Si       0.12272    0.25962    0.53933    1.000
    Si399    Si       0.21905    0.28038    0.58750    1.000
    N400     N        0.13692    0.25550    0.58014    1.000
    N401     N        0.15671    0.25999    0.51145    1.000
    N402     N        0.21934    0.26165    0.54802    1.000
    Si403    Si       0.13190    0.29655    0.59713    1.000
    N404     N        0.02556    0.27853    0.70244    1.000
    N405     N        0.07544    0.25828    0.65744    1.000
    Si406    Si       0.05628    0.29207    0.67607    1.000
    N407     N        0.20690    0.25648    0.62007    1.000
    Si408    Si       0.21306    0.30218    0.69803    1.000
    N409     N        0.19126    0.26294    0.68981    1.000
    Si410    Si       0.17426    0.26409    0.64875    1.000
    Si411    Si       0.16482    0.24708    0.72207    1.000
    N412     N        0.15221    0.29959    0.63649    1.000
    Si413    Si       0.09304    0.26775    0.79889    1.000
    N414     N        0.08061    0.27837    0.75862    1.000
    N415     N        0.06774    0.26357    0.83361    1.000
    Si416    Si       0.99461    0.28176    0.77929    1.000
    N417     N        0.01430    0.24699    0.76475    1.000
    N418     N        0.01025    0.29408    0.81668    1.000
    N419     N        0.16855    0.26068    0.76293    1.000
    N420     N        0.12615    0.29016    0.81124    1.000
    N421     N        0.18540    0.28572    0.85643    1.000
    Si422    Si       0.15295    0.29817    0.77873    1.000
    Si423    Si       0.05725    0.26160    0.87652    1.000
    N424     N        0.01822    0.28625    0.94732    1.000
    Si425    Si       0.04364    0.29691    0.98319    1.000
    Si426    Si       0.00329    0.24835    0.93329    1.000
    N427     N        0.01862    0.24533    0.89261    1.000
    N428     N        0.11418    0.29494    0.87733    1.000
    N429     N        0.11825    0.25809    0.99318    1.000
    Si430    Si       0.18381    0.28481    0.94719    1.000
    Si431    Si       0.12617    0.25974    0.90041    1.000
    Si432    Si       0.12041    0.29449    0.97129    1.000
    Si433    Si       0.19453    0.25087    0.88141    1.000
    N434     N        0.14326    0.28097    0.93650    1.000
    N435     N        0.21129    0.26866    0.91769    1.000
    N436     N        0.18746    0.25984    0.98141    1.000
    Si437    Si       0.07762    0.33714    0.07842    1.000
    Si438    Si       0.00983    0.33800    0.04060    1.000
    N439     N        0.03839    0.35423    0.06838    1.000
    N440     N        0.03040    0.33164    0.00318    1.000
    N441     N        0.18236    0.32225    0.07522    1.000
    N442     N        0.21563    0.33618    0.01973    1.000
    Si443    Si       0.21798    0.30923    0.05361    1.000
    Si444    Si       0.15849    0.35695    0.07268    1.000
    N445     N        0.12850    0.30375    0.11918    1.000
    N446     N        0.08182    0.35182    0.12127    1.000
    N447     N        0.00869    0.35216    0.21009    1.000
    Si448    Si       0.00330    0.32847    0.17290    1.000
    N449     N        0.09863    0.31343    0.23573    1.000
    N450     N        0.01336    0.35902    0.14387    1.000
    N451     N        0.16442    0.32567    0.24581    1.000
    Si452    Si       0.12162    0.34257    0.13750    1.000
    Si453    Si       0.13559    0.31980    0.21399    1.000
    Si454    Si       0.19364    0.36038    0.13654    1.000
    N455     N        0.22118    0.31512    0.20141    1.000
    N456     N        0.19289    0.31640    0.14126    1.000
    N457     N        0.12819    0.34794    0.18103    1.000
    Si458    Si       0.20930    0.32933    0.24126    1.000
    N459     N        0.05107    0.32390    0.28578    1.000
    Si460    Si       0.04149    0.33024    0.32778    1.000
    Si461    Si       0.08277    0.34181    0.26465    1.000
    N462     N        0.99901    0.33719    0.33022    1.000
    N463     N        0.11596    0.35322    0.29383    1.000
    N464     N        0.18435    0.33367    0.31179    1.000
    Si465    Si       0.14867    0.32734    0.28636    1.000
    Si466    Si       0.22734    0.33677    0.30882    1.000
    N467     N        0.12541    0.34218    0.36360    1.000
    N468     N        0.23282    0.31084    0.27530    1.000
    Si469    Si       0.09096    0.31508    0.37945    1.000
    N470     N        0.07722    0.34107    0.41375    1.000
    Si471    Si       0.04529    0.33167    0.44167    1.000
    N472     N        0.06168    0.33342    0.48254    1.000
    N473     N        0.01332    0.36150    0.44115    1.000
    N474     N        0.17788    0.30183    0.37643    1.000
    N475     N        0.14002    0.32648    0.49136    1.000
    Si476    Si       0.23762    0.34343    0.44985    1.000
    Si477    Si       0.23914    0.33821    0.38343    1.000
    N478     N        0.14500    0.35445    0.42387    1.000
    N479     N        0.22527    0.31802    0.41844    1.000
    Si480    Si       0.16489    0.33771    0.45809    1.000
    Si481    Si       0.16205    0.34216    0.38498    1.000
    N482     N        0.20165    0.35370    0.47077    1.000
    N483     N        0.99419    0.32325    0.59237    1.000
    Si484    Si       0.07047    0.33467    0.61917    1.000
    N485     N        0.20364    0.32166    0.58677    1.000
    Si486    Si       0.13087    0.33962    0.53274    1.000
    N487     N        0.13957    0.33135    0.57606    1.000
    Si488    Si       0.17705    0.35523    0.57790    1.000
    N489     N        0.03541    0.31806    0.64501    1.000
    Si490    Si       0.00585    0.34771    0.66160    1.000
    N491     N        0.08466    0.31904    0.69649    1.000
    Si492    Si       0.09303    0.31448    0.73881    1.000
    N493     N        0.10179    0.35642    0.63790    1.000
    Si494    Si       0.11099    0.35023    0.67940    1.000
    Si495    Si       0.16347    0.34939    0.72889    1.000
    N496     N        0.19895    0.32616    0.73093    1.000
    Si497    Si       0.17302    0.33641    0.64933    1.000
    N498     N        0.13463    0.32438    0.74885    1.000
    N499     N        0.21408    0.32754    0.66187    1.000
    N500     N        0.15223    0.34932    0.68646    1.000
    N501     N        0.06852    0.33765    0.83787    1.000
    Si502    Si       0.02951    0.31958    0.84397    1.000
    N503     N        0.06730    0.34468    0.75565    1.000
    N504     N        0.00280    0.35179    0.85251    1.000
    Si505    Si       0.07218    0.35644    0.79717    1.000
    N506     N        0.23700    0.33266    0.84541    1.000
    Si507    Si       0.19687    0.32659    0.83971    1.000
    Si508    Si       0.21790    0.32671    0.76946    1.000
    N509     N        0.15697    0.34408    0.85054    1.000
    N510     N        0.18724    0.31759    0.79912    1.000
    Si511    Si       0.14518    0.30197    0.84859    1.000
    N512     N        0.08018    0.31171    0.96456    1.000
    N513     N        0.02790    0.35516    0.93203    1.000
    N514     N        0.08972    0.35376    0.91053    1.000
    Si515    Si       0.06913    0.35053    0.94931    1.000
    Si516    Si       0.08318    0.32508    0.87953    1.000
    Si517    Si       0.01364    0.31665    0.91493    1.000
    N518     N        0.04331    0.30452    0.88442    1.000
    N519     N        0.14480    0.32051    0.99446    1.000
    Si520    Si       0.22827    0.34676    0.93466    1.000
    N521     N        0.20020    0.32456    0.95505    1.000
    Si522    Si       0.18421    0.34055    0.99140    1.000
    Si523    Si       0.03778    0.39812    0.06897    1.000
    N524     N        0.06929    0.40598    0.04136    1.000
    N525     N        0.04868    0.41434    0.10792    1.000
    Si526    Si       0.08174    0.41260    0.00266    1.000
    N527     N        0.00140    0.41859    0.06568    1.000
    Si528    Si       0.11111    0.40289    0.05785    1.000
    N529     N        0.17406    0.39303    0.05523    1.000
    Si530    Si       0.20743    0.40681    0.08149    1.000
    N531     N        0.22155    0.37347    0.10739    1.000
    Si532    Si       0.16952    0.41232    0.01731    1.000
    N533     N        0.15227    0.36593    0.11681    1.000
    Si534    Si       0.14623    0.41204    0.12112    1.000
    N535     N        0.11372    0.35898    0.06291    1.000
    N536     N        0.05964    0.39657    0.17480    1.000
    Si537    Si       0.03884    0.38375    0.21357    1.000
    Si538    Si       0.05089    0.37940    0.13515    1.000
    N539     N        0.07109    0.37823    0.24250    1.000
    N540     N        0.21715    0.37234    0.23855    1.000
    N541     N        0.18706    0.38131    0.17336    1.000
    N542     N        0.12879    0.41366    0.16013    1.000
    N543     N        0.13477    0.39904    0.22811    1.000
    Si544    Si       0.14801    0.38781    0.18872    1.000
    Si545    Si       0.21292    0.39844    0.20195    1.000
    Si546    Si       0.04173    0.39648    0.35189    1.000
    N547     N        0.00909    0.40346    0.32454    1.000
    N548     N        0.06700    0.36511    0.33974    1.000
    Si549    Si       0.11124    0.37152    0.33396    1.000
    Si550    Si       0.09793    0.41366    0.24692    1.000
    Si551    Si       0.22331    0.39909    0.27233    1.000
    N552     N        0.13830    0.40829    0.33930    1.000
    N553     N        0.18439    0.41321    0.28185    1.000
    Si554    Si       0.00131    0.39862    0.42082    1.000
    N555     N        0.10076    0.40673    0.39955    1.000
    Si556    Si       0.10550    0.37240    0.42455    1.000
    Si557    Si       0.00529    0.38598    0.48083    1.000
    N558     N        0.09915    0.39130    0.46300    1.000
    N559     N        0.03225    0.40556    0.39312    1.000
    Si560    Si       0.23576    0.41386    0.46762    1.000
    Si561    Si       0.20202    0.40848    0.38218    1.000
    N562     N        0.20340    0.36507    0.38277    1.000
    Si563    Si       0.08149    0.38751    0.56811    1.000
    N564     N        0.09675    0.36857    0.53286    1.000
    N565     N        0.99215    0.39320    0.56877    1.000
    N566     N        0.04056    0.39858    0.50291    1.000
    N567     N        0.11277    0.40852    0.58935    1.000
    Si568    Si       0.01039    0.36272    0.59492    1.000
    N569     N        0.05347    0.36259    0.58974    1.000
    Si570    Si       0.07738    0.37337    0.49489    1.000
    Si571    Si       0.20800    0.36550    0.51196    1.000
    N572     N        0.21605    0.38267    0.57656    1.000
    N573     N        0.22601    0.40903    0.51171    1.000
    Si574    Si       0.20157    0.40018    0.61390    1.000
    Si575    Si       0.23225    0.41610    0.55250    1.000
    N576     N        0.16886    0.37096    0.61910    1.000
    N577     N        0.17202    0.36117    0.53478    1.000
    N578     N        0.99597    0.37831    0.63358    1.000
    Si579    Si       0.01557    0.41254    0.70249    1.000
    N580     N        0.02503    0.36775    0.69626    1.000
    N581     N        0.09818    0.38320    0.70534    1.000
    Si582    Si       0.05963    0.37149    0.72254    1.000
    N583     N        0.04753    0.41373    0.73457    1.000
    N584     N        0.22807    0.39234    0.64470    1.000
    N585     N        0.15555    0.39249    0.74239    1.000
    N586     N        0.22736    0.41733    0.74500    1.000
    Si587    Si       0.13096    0.41264    0.69909    1.000
    Si588    Si       0.12894    0.38836    0.62439    1.000
    N589     N        0.12948    0.41803    0.65558    1.000
    N590     N        0.03962    0.38703    0.79699    1.000
    Si591    Si       0.01210    0.38973    0.83038    1.000
    N592     N        0.11035    0.40078    0.86383    1.000
    N593     N        0.11357    0.37254    0.79904    1.000
    N594     N        0.03662    0.42267    0.84779    1.000
    Si595    Si       0.13436    0.37777    0.83650    1.000
    Si596    Si       0.13678    0.40809    0.77976    1.000
    N597     N        0.16408    0.40299    0.81419    1.000
    N598     N        0.22884    0.39467    0.85036    1.000
    Si599    Si       0.19620    0.41954    0.83485    1.000
    Si600    Si       0.99776    0.38471    0.93426    1.000
    N601     N        0.08177    0.38314    0.97295    1.000
    Si602    Si       0.10289    0.39570    0.90764    1.000
    Si603    Si       0.21959    0.40776    0.89214    1.000
    Si604    Si       0.17677    0.39673    0.94557    1.000
    N605     N        0.17784    0.38235    0.98625    1.000
    N606     N        0.20347    0.37808    0.91825    1.000
    N607     N        0.13619    0.40976    0.92967    1.000
    Si608    Si       0.05519    0.45727    0.11230    1.000
    N609     N        0.07743    0.45572    0.99760    1.000
    Si610    Si       0.99194    0.43459    0.10449    1.000
    N611     N        0.01500    0.47003    0.12051    1.000
    N612     N        0.07243    0.48050    0.07788    1.000
    Si613    Si       0.11789    0.47472    0.08169    1.000
    Si614    Si       0.11920    0.46181    0.00683    1.000
    N615     N        0.12259    0.43099    0.08928    1.000
    N616     N        0.18599    0.45169    0.01346    1.000
    N617     N        0.18739    0.42743    0.11439    1.000
    Si618    Si       0.21148    0.46298    0.11646    1.000
    N619     N        0.23377    0.42736    0.05334    1.000
    N620     N        0.12650    0.42019    0.01710    1.000
    N621     N        0.08263    0.44549    0.21873    1.000
    N622     N        0.01994    0.42150    0.23242    1.000
    N623     N        0.08316    0.45814    0.14531    1.000
    Si624    Si       0.09100    0.42871    0.17547    1.000
    Si625    Si       0.00076    0.45962    0.16191    1.000
    Si626    Si       0.04198    0.45848    0.22640    1.000
    N627     N        0.02974    0.47707    0.18661    1.000
    N628     N        0.19153    0.43238    0.21525    1.000
    Si629    Si       0.21948    0.46210    0.19737    1.000
    N630     N        0.21332    0.47787    0.15711    1.000
    Si631    Si       0.16243    0.42687    0.24694    1.000
    N632     N        0.06284    0.43382    0.34773    1.000
    N633     N        0.09383    0.43327    0.28531    1.000
    Si634    Si       0.06864    0.45626    0.31307    1.000
    Si635    Si       0.99846    0.44515    0.31793    1.000
    N636     N        0.02853    0.47469    0.30890    1.000
    N637     N        0.16288    0.46845    0.31329    1.000
    Si638    Si       0.17378    0.42649    0.32123    1.000
    N639     N        0.20879    0.42724    0.34343    1.000
    Si640    Si       0.12633    0.46544    0.29264    1.000
    N641     N        0.13919    0.46322    0.25046    1.000
    N642     N        0.10567    0.46688    0.37864    1.000
    Si643    Si       0.06440    0.43804    0.39212    1.000
    Si644    Si       0.09645    0.43489    0.46352    1.000
    N645     N        0.06375    0.44669    0.43776    1.000
    N646     N        0.03143    0.47589    0.39317    1.000
    Si647    Si       0.99076    0.47973    0.38531    1.000
    N648     N        0.99425    0.42119    0.45745    1.000
    N649     N        0.12876    0.45986    0.45041    1.000
    N650     N        0.23599    0.42708    0.39873    1.000
    Si651    Si       0.12801    0.43021    0.37755    1.000
    N652     N        0.19570    0.42870    0.46057    1.000
    N653     N        0.16721    0.43150    0.39772    1.000
    Si654    Si       0.16813    0.45163    0.43609    1.000
    Si655    Si       0.09361    0.44697    0.58689    1.000
    N656     N        0.00823    0.44814    0.53359    1.000
    N657     N        0.01349    0.44009    0.61461    1.000
    Si658    Si       0.04804    0.43623    0.52125    1.000
    Si659    Si       0.01713    0.42970    0.57333    1.000
    N660     N        0.08455    0.44962    0.50367    1.000
    N661     N        0.05943    0.42763    0.56247    1.000
    N662     N        0.07751    0.47001    0.62006    1.000
    N663     N        0.11828    0.47404    0.56072    1.000
    Si664    Si       0.12161    0.46682    0.51746    1.000
    N665     N        0.15337    0.44070    0.51267    1.000
    N666     N        0.20399    0.44824    0.55490    1.000
    Si667    Si       0.20064    0.46936    0.59050    1.000
    Si668    Si       0.19695    0.44538    0.50759    1.000
    N669     N        0.18671    0.44007    0.62085    1.000
    Si670    Si       0.04139    0.45823    0.64019    1.000
    N671     N        0.04533    0.43448    0.67734    1.000
    Si672    Si       0.06913    0.44567    0.71113    1.000
    N673     N        0.11400    0.45255    0.71255    1.000
    N674     N        0.17379    0.42631    0.69434    1.000
    Si675    Si       0.18476    0.43140    0.73618    1.000
    N676     N        0.20343    0.47359    0.72918    1.000
    Si677    Si       0.16346    0.44577    0.65538    1.000
    N678     N        0.03020    0.45601    0.78773    1.000
    Si679    Si       0.03684    0.46325    0.82976    1.000
    N680     N        0.07798    0.46635    0.84100    1.000
    N681     N        0.09774    0.43303    0.77610    1.000
    Si682    Si       0.07464    0.42981    0.86509    1.000
    Si683    Si       0.05452    0.42266    0.77530    1.000
    Si684    Si       0.11900    0.46782    0.75581    1.000
    N685     N        0.21312    0.45373    0.81185    1.000
    N686     N        0.15722    0.44959    0.76901    1.000
    Si687    Si       0.17745    0.47298    0.79982    1.000
    N688     N        0.14997    0.48058    0.83472    1.000
    N689     N        0.00238    0.45666    0.89365    1.000
    Si690    Si       0.03384    0.44700    0.92418    1.000
    N691     N        0.07077    0.42928    0.90731    1.000
    N692     N        0.01073    0.42402    0.95245    1.000
    N693     N        0.18776    0.43964    0.94705    1.000
    N694     N        0.13011    0.47583    0.96786    1.000
    N695     N        0.18879    0.43462    0.87509    1.000
    Si696    Si       0.21247    0.45939    0.97724    1.000
    Si697    Si       0.14733    0.44927    0.93679    1.000
    Si698    Si       0.16822    0.47390    0.87444    1.000
    N699     N        0.05308    0.51889    0.01499    1.000
    Si700    Si       0.05401    0.51339    0.05747    1.000
    N701     N        0.01030    0.50930    0.06333    1.000
    Si702    Si       0.98951    0.51363    0.02600    1.000
    N703     N        0.00223    0.48136    0.99716    1.000
    Si704    Si       0.17736    0.48674    0.03971    1.000
    N705     N        0.18757    0.52617    0.02616    1.000
    N706     N        0.13162    0.49941    0.11427    1.000
    N707     N        0.20147    0.48122    0.07585    1.000
    N708     N        0.13464    0.48354    0.04207    1.000
    Si709    Si       0.15335    0.53842    0.12056    1.000
    Si710    Si       0.02664    0.51608    0.20661    1.000
    Si711    Si       0.10690    0.49336    0.14825    1.000
    N712     N        0.07623    0.52415    0.14279    1.000
    Si713    Si       0.10945    0.48113    0.22478    1.000
    N714     N        0.02482    0.49471    0.24516    1.000
    N715     N        0.23620    0.53536    0.13173    1.000
    N716     N        0.19492    0.50313    0.20852    1.000
    N717     N        0.17345    0.53827    0.15888    1.000
    N718     N        0.12588    0.49222    0.18704    1.000
    Si719    Si       0.21443    0.52076    0.16707    1.000
    Si720    Si       0.22546    0.52022    0.23359    1.000
    Si721    Si       0.15819    0.51985    0.19498    1.000
    Si722    Si       0.01721    0.50874    0.28570    1.000
    N723     N        0.09631    0.49162    0.31324    1.000
    Si724    Si       0.10005    0.50438    0.35670    1.000
    Si725    Si       0.08918    0.52690    0.28919    1.000
    N726     N        0.09277    0.51466    0.24714    1.000
    N727     N        0.07489    0.53545    0.37111    1.000
    N728     N        0.23667    0.48600    0.33236    1.000
    Si729    Si       0.19958    0.49511    0.31004    1.000
    N730     N        0.22082    0.50060    0.27239    1.000
    N731     N        0.13966    0.52084    0.36227    1.000
    N732     N        0.18571    0.53640    0.31639    1.000
    N733     N        0.07541    0.50937    0.45745    1.000
    N734     N        0.01351    0.49197    0.46260    1.000
    Si735    Si       0.04646    0.48814    0.43331    1.000
    N736     N        0.01288    0.53717    0.41681    1.000
    Si737    Si       0.01059    0.53497    0.45931    1.000
    Si738    Si       0.07178    0.53751    0.49049    1.000
    Si739    Si       0.11950    0.50299    0.45546    1.000
    N740     N        0.12940    0.53477    0.42837    1.000
    N741     N        0.21081    0.48411    0.49288    1.000
    Si742    Si       0.20204    0.51409    0.46135    1.000
    N743     N        0.18022    0.49282    0.42999    1.000
    Si744    Si       0.16026    0.52118    0.40121    1.000
    N745     N        0.00853    0.52354    0.59142    1.000
    N746     N        0.05394    0.52474    0.52741    1.000
    Si747    Si       0.13704    0.51085    0.57490    1.000
    N748     N        0.17659    0.50408    0.59176    1.000
    N749     N        0.12344    0.52434    0.61396    1.000
    N750     N        0.13089    0.50570    0.49769    1.000
    Si751    Si       0.02123    0.52933    0.63028    1.000
    Si752    Si       0.08753    0.51196    0.63462    1.000
    Si753    Si       0.04945    0.50940    0.69319    1.000
    N754     N        0.02859    0.49552    0.65754    1.000
    N755     N        0.09008    0.51018    0.67886    1.000
    N756     N        0.05328    0.48227    0.72725    1.000
    Si757    Si       0.18263    0.50951    0.73764    1.000
    N758     N        0.13860    0.50796    0.73232    1.000
    N759     N        0.20914    0.51944    0.64588    1.000
    Si760    Si       0.16534    0.51634    0.63249    1.000
    N761     N        0.15149    0.48598    0.66128    1.000
    Si762    Si       0.12569    0.49108    0.69481    1.000
    N763     N        0.01263    0.49760    0.83632    1.000
    N764     N        0.01494    0.52906    0.77356    1.000
    Si765    Si       0.02536    0.48774    0.75894    1.000
    N766     N        0.10344    0.53132    0.84695    1.000
    Si767    Si       0.10760    0.49268    0.82696    1.000
    N768     N        0.10818    0.50026    0.78558    1.000
    Si769    Si       0.00428    0.53432    0.81589    1.000
    N770     N        0.18359    0.51125    0.78112    1.000
    Si771    Si       0.11768    0.53440    0.76113    1.000
    Si772    Si       0.05430    0.52357    0.92968    1.000
    Si773    Si       0.00428    0.50040    0.87980    1.000
    N774     N        0.03984    0.52316    0.88966    1.000
    N775     N        0.09819    0.53209    0.93172    1.000
    N776     N        0.04501    0.48387    0.94389    1.000
    Si777    Si       0.04734    0.48363    0.98884    1.000
    N778     N        0.14317    0.47975    0.90641    1.000
    Si779    Si       0.13272    0.50885    0.94003    1.000
    N780     N        0.22247    0.50030    0.96899    1.000
    Si781    Si       0.19480    0.53179    0.98271    1.000
    N782     N        0.20103    0.50357    0.87790    1.000
    N783     N        0.06807    0.55177    0.07347    1.000
    N784     N        0.06669    0.58687    0.01095    1.000
    N785     N        0.99677    0.55701    0.01616    1.000
    Si786    Si       0.07569    0.59017    0.05289    1.000
    Si787    Si       0.07957    0.55730    0.11633    1.000
    Si788    Si       0.03602    0.55630    0.99770    1.000
    Si789    Si       0.19491    0.56017    0.05155    1.000
    N790     N        0.18277    0.55339    0.09317    1.000
    Si791    Si       0.22190    0.56613    0.10632    1.000
    N792     N        0.23622    0.56065    0.06457    1.000
    Si793    Si       0.05976    0.58537    0.17866    1.000
    Si794    Si       0.09552    0.55755    0.22171    1.000
    N795     N        0.05895    0.58849    0.13511    1.000
    N796     N        0.05581    0.55124    0.20517    1.000
    Si797    Si       0.99709    0.57924    0.20611    1.000
    N798     N        0.99302    0.53811    0.18938    1.000
    N799     N        0.10060    0.59465    0.19429    1.000
    Si800    Si       0.17114    0.57866    0.22972    1.000
    N801     N        0.13995    0.54911    0.22170    1.000
    N802     N        0.12238    0.56987    0.11595    1.000
    Si803    Si       0.04422    0.58123    0.27115    1.000
    N804     N        0.08565    0.58363    0.25716    1.000
    N805     N        0.04729    0.54218    0.29143    1.000
    N806     N        0.00590    0.58379    0.24797    1.000
    Si807    Si       0.12061    0.59324    0.28127    1.000
    N808     N        0.11929    0.55583    0.30442    1.000
    Si809    Si       0.15161    0.55297    0.33569    1.000
    Si810    Si       0.21203    0.55820    0.28779    1.000
    N811     N        0.20636    0.55774    0.24511    1.000
    N812     N        0.15463    0.59500    0.34167    1.000
    N813     N        0.02426    0.58402    0.37128    1.000
    Si814    Si       0.06501    0.57463    0.38242    1.000
    N815     N        0.04085    0.56355    0.47389    1.000
    N816     N        0.10857    0.56326    0.48437    1.000
    N817     N        0.07822    0.59012    0.42405    1.000
    Si818    Si       0.99634    0.55204    0.38009    1.000
    Si819    Si       0.11679    0.57403    0.44392    1.000
    N820     N        0.18020    0.54890    0.47835    1.000
    N821     N        0.22242    0.57994    0.43662    1.000
    Si822    Si       0.22318    0.57605    0.39376    1.000
    Si823    Si       0.18994    0.58838    0.46133    1.000
    N824     N        0.18975    0.55050    0.38743    1.000
    N825     N        0.02080    0.58517    0.55022    1.000
    N826     N        0.09403    0.59044    0.57499    1.000
    Si827    Si       0.07853    0.58400    0.61609    1.000
    Si828    Si       0.01992    0.54056    0.54987    1.000
    Si829    Si       0.13551    0.58601    0.56097    1.000
    Si830    Si       0.14376    0.54972    0.50457    1.000
    N831     N        0.14138    0.54455    0.54917    1.000
    N832     N        0.15105    0.59688    0.52044    1.000
    N833     N        0.06190    0.54619    0.62774    1.000
    Si834    Si       0.99493    0.56674    0.69377    1.000
    N835     N        0.03318    0.54718    0.70810    1.000
    N836     N        0.99462    0.55581    0.65212    1.000
    Si837    Si       0.22328    0.57224    0.73337    1.000
    Si838    Si       0.19798    0.55103    0.67342    1.000
    N839     N        0.16029    0.55726    0.65407    1.000
    N840     N        0.22460    0.58383    0.67302    1.000
    N841     N        0.19846    0.54022    0.71538    1.000
    Si842    Si       0.15013    0.59512    0.63505    1.000
    N843     N        0.03767    0.55924    0.82850    1.000
    N844     N        0.08535    0.56209    0.76279    1.000
    Si845    Si       0.06206    0.54624    0.86033    1.000
    Si846    Si       0.04263    0.55775    0.75124    1.000
    Si847    Si       0.10379    0.59634    0.77972    1.000
    N848     N        0.02087    0.59460    0.75071    1.000
    Si849    Si       0.20551    0.54267    0.86151    1.000
    N850     N        0.17619    0.55807    0.83473    1.000
    N851     N        0.14843    0.56690    0.76710    1.000
    Si852    Si       0.13475    0.56073    0.84753    1.000
    N853     N        0.21854    0.56864    0.77838    1.000
    Si854    Si       0.18215    0.55121    0.79221    1.000
    N855     N        0.11931    0.59466    0.82329    1.000
    N856     N        0.03541    0.55329    0.95421    1.000
    N857     N        0.07028    0.57943    0.88761    1.000
    Si858    Si       0.10462    0.57023    0.91355    1.000
    N859     N        0.16109    0.53820    0.95314    1.000
    N860     N        0.13825    0.57271    0.88921    1.000
    N861     N        0.21251    0.57742    0.88884    1.000
    Si862    Si       0.16210    0.58196    0.96561    1.000
    N863     N        0.20178    0.57522    0.98112    1.000
    Si864    Si       0.23524    0.59692    0.96538    1.000
    N865     N        0.13212    0.58897    0.99688    1.000
    N866     N        0.04904    0.61855    0.07219    1.000
    Si867    Si       0.01920    0.63945    0.05018    1.000
    N868     N        0.99916    0.62403    0.01356    1.000
    Si869    Si       0.05606    0.62804    0.11407    1.000
    N870     N        0.09763    0.64176    0.11757    1.000
    N871     N        0.23618    0.65508    0.04767    1.000
    N872     N        0.11442    0.60683    0.06022    1.000
    Si873    Si       0.12772    0.61199    0.10463    1.000
    Si874    Si       0.14610    0.60975    0.03099    1.000
    N875     N        0.16681    0.64305    0.00542    1.000
    Si876    Si       0.19524    0.64556    0.03914    1.000
    N877     N        0.18426    0.60280    0.04915    1.000
    N878     N        0.02846    0.65476    0.13552    1.000
    N879     N        0.02306    0.60726    0.18696    1.000
    Si880    Si       0.01359    0.64814    0.17427    1.000
    N881     N        0.10825    0.65584    0.23483    1.000
    N882     N        0.16417    0.62846    0.12337    1.000
    Si883    Si       0.12591    0.62503    0.20946    1.000
    N884     N        0.16709    0.60706    0.19929    1.000
    Si885    Si       0.17374    0.63308    0.16607    1.000
    N886     N        0.22666    0.63175    0.24739    1.000
    N887     N        0.03104    0.61843    0.29293    1.000
    N888     N        0.09149    0.60720    0.36625    1.000
    N889     N        0.11285    0.63024    0.30207    1.000
    Si890    Si       0.98941    0.62048    0.27566    1.000
    Si891    Si       0.12342    0.62439    0.34265    1.000
    Si892    Si       0.19465    0.61641    0.33742    1.000
    Si893    Si       0.19089    0.63211    0.27499    1.000
    N894     N        0.21415    0.60022    0.30185    1.000
    N895     N        0.15717    0.60288    0.26249    1.000
    N896     N        0.18396    0.65087    0.31491    1.000
    N897     N        0.04357    0.64674    0.39645    1.000
    N898     N        0.00817    0.60785    0.43475    1.000
    N899     N        0.06640    0.63917    0.47148    1.000
    Si900    Si       0.00725    0.62125    0.39173    1.000
    Si901    Si       0.08238    0.62950    0.40320    1.000
    Si902    Si       0.04671    0.60274    0.45466    1.000
    N903     N        0.13976    0.65426    0.47933    1.000
    N904     N        0.21391    0.61588    0.37483    1.000
    N905     N        0.11171    0.65355    0.42180    1.000
    N906     N        0.20011    0.62438    0.48265    1.000
    Si907    Si       0.21792    0.64897    0.40233    1.000
    Si908    Si       0.15247    0.64298    0.43917    1.000
    N909     N        0.15215    0.60026    0.44060    1.000
    Si910    Si       0.00036    0.62309    0.60734    1.000
    N911     N        0.06325    0.64424    0.54415    1.000
    N912     N        0.04210    0.60603    0.60648    1.000
    Si913    Si       0.05451    0.60682    0.56544    1.000
    N914     N        0.00753    0.63106    0.50304    1.000
    N915     N        0.98985    0.64138    0.56941    1.000
    Si916    Si       0.04443    0.65439    0.50673    1.000
    N917     N        0.21709    0.60655    0.55828    1.000
    Si918    Si       0.18708    0.63383    0.57651    1.000
    Si919    Si       0.16637    0.63342    0.50810    1.000
    N920     N        0.15888    0.60355    0.59327    1.000
    N921     N        0.16443    0.65535    0.54456    1.000
    Si922    Si       0.02910    0.62476    0.71914    1.000
    Si923    Si       0.10282    0.64883    0.72761    1.000
    N924     N        0.99443    0.61254    0.69468    1.000
    Si925    Si       0.09169    0.63434    0.66829    1.000
    N926     N        0.06985    0.62842    0.70556    1.000
    N927     N        0.10624    0.60148    0.64424    1.000
    N928     N        0.19581    0.60840    0.72773    1.000
    Si929    Si       0.20867    0.62474    0.68977    1.000
    N930     N        0.17381    0.62043    0.66010    1.000
    N931     N        0.04590    0.62661    0.84983    1.000
    N932     N        0.06776    0.61937    0.78669    1.000
    N933     N        0.00079    0.62108    0.80767    1.000
    Si934    Si       0.04005    0.60019    0.81458    1.000
    Si935    Si       0.16454    0.60474    0.75769    1.000
    N936     N        0.12634    0.62701    0.75720    1.000
    Si937    Si       0.13354    0.62954    0.84848    1.000
    N938     N        0.17934    0.62992    0.79155    1.000
    Si939    Si       0.21773    0.64693    0.80274    1.000
    N940     N        0.17323    0.63262    0.86941    1.000
    Si941    Si       0.09503    0.60542    0.98463    1.000
    Si942    Si       0.06894    0.62392    0.88685    1.000
    N943     N        0.00231    0.63978    0.94297    1.000
    N944     N        0.09824    0.60269    0.94202    1.000
    N945     N        0.11056    0.63363    0.88433    1.000
    N946     N        0.09904    0.64769    0.99476    1.000
    Si947    Si       0.17583    0.59606    0.89505    1.000
    Si948    Si       0.12633    0.63206    0.92438    1.000
    N949     N        0.16316    0.61090    0.93430    1.000
    N950     N        0.03981    0.67477    0.03300    1.000
    Si951    Si       0.00649    0.68165    0.10892    1.000
    Si952    Si       0.07001    0.67839    0.00223    1.000
    Si953    Si       0.02097    0.71087    0.04855    1.000
    N954     N        0.03268    0.71030    0.09012    1.000
    N955     N        0.99207    0.65138    0.08016    1.000
    N956     N        0.17134    0.67066    0.06600    1.000
    Si957    Si       0.17966    0.66703    0.10876    1.000
    N958     N        0.21998    0.67595    0.11625    1.000
    Si959    Si       0.16790    0.71603    0.06180    1.000
    N960     N        0.02251    0.68624    0.19495    1.000
    N961     N        0.09082    0.69337    0.17020    1.000
    Si962    Si       0.99656    0.68820    0.23152    1.000
    Si963    Si       0.11404    0.69165    0.20736    1.000
    Si964    Si       0.05580    0.71202    0.18752    1.000
    Si965    Si       0.22410    0.69026    0.15705    1.000
    Si966    Si       0.21156    0.66468    0.22318    1.000
    Si967    Si       0.11453    0.67093    0.14300    1.000
    N968     N        0.23829    0.69973    0.23047    1.000
    N969     N        0.20470    0.65948    0.18110    1.000
    N970     N        0.14824    0.69419    0.12594    1.000
    N971     N        0.13504    0.65514    0.17815    1.000
    N972     N        0.06509    0.67928    0.28626    1.000
    Si973    Si       0.10339    0.66393    0.27745    1.000
    N974     N        0.02688    0.68074    0.34133    1.000
    Si975    Si       0.03212    0.65886    0.30545    1.000
    N976     N        0.01444    0.71568    0.26005    1.000
    Si977    Si       0.15932    0.70561    0.25766    1.000
    Si978    Si       0.15656    0.68341    0.32581    1.000
    N979     N        0.13283    0.69451    0.29079    1.000
    N980     N        0.13346    0.66489    0.35649    1.000
    N981     N        0.17638    0.66813    0.24708    1.000
    N982     N        0.09170    0.70732    0.46539    1.000
    N983     N        0.08030    0.70194    0.38175    1.000
    Si984    Si       0.09945    0.66481    0.46305    1.000
    Si985    Si       0.04054    0.68613    0.38085    1.000
    N986     N        0.23785    0.68049    0.37964    1.000
    N987     N        0.18370    0.66655    0.42115    1.000
    Si988    Si       0.11838    0.68462    0.39115    1.000
    Si989    Si       0.17983    0.70987    0.42440    1.000
    Si990    Si       0.06927    0.68382    0.55980    1.000
    N991     N        0.04269    0.69632    0.59022    1.000
    N992     N        0.05263    0.70005    0.52054    1.000
    N993     N        0.10704    0.68479    0.57797    1.000
    Si994    Si       0.18390    0.70176    0.61340    1.000
    Si995    Si       0.14159    0.68999    0.55386    1.000
    N996     N        0.20650    0.66342    0.60152    1.000
    Si997    Si       0.10965    0.69323    0.62398    1.000
    N998     N        0.08104    0.66367    0.63857    1.000
    Si999    Si       0.04173    0.67860    0.62857    1.000
    N1000    N        0.04200    0.71310    0.65821    1.000
    N1001    N        0.00708    0.65449    0.63760    1.000
    Si1002   Si       0.15935    0.66045    0.66916    1.000
    N1003    N        0.12415    0.65559    0.69241    1.000
    N1004    N        0.15069    0.68117    0.63196    1.000
    Si1005   Si       0.22061    0.70048    0.70265    1.000
    N1006    N        0.19464    0.66949    0.69076    1.000
    N1007    N        0.04495    0.68087    0.81095    1.000
    N1008    N        0.08857    0.67844    0.75611    1.000
    Si1009   Si       0.05474    0.66016    0.77535    1.000
    Si1010   Si       0.01558    0.65491    0.83551    1.000
    Si1011   Si       0.11178    0.71459    0.77226    1.000
    N1012    N        0.02306    0.66109    0.74441    1.000
    Si1013   Si       0.13101    0.70334    0.84186    1.000
    N1014    N        0.17456    0.70061    0.84738    1.000
    N1015    N        0.15114    0.69788    0.76760    1.000
    N1016    N        0.21981    0.68517    0.78067    1.000
    N1017    N        0.12453    0.66395    0.82285    1.000
    Si1018   Si       0.19755    0.66855    0.86832    1.000
    Si1019   Si       0.14368    0.65841    0.78292    1.000
    N1020    N        0.23159    0.65741    0.84237    1.000
    Si1021   Si       0.99265    0.70545    0.87188    1.000
    N1022    N        0.99940    0.66251    0.87681    1.000
    N1023    N        0.06035    0.66202    0.90694    1.000
    N1024    N        0.03869    0.68515    0.96987    1.000
    Si1025   Si       0.02538    0.67600    0.92757    1.000
    Si1026   Si       0.09534    0.68958    0.91174    1.000
    N1027    N        0.00240    0.70908    0.91881    1.000
    Si1028   Si       0.00689    0.65418    0.98370    1.000
    N1029    N        0.15231    0.70409    0.98739    1.000
    Si1030   Si       0.23994    0.66922    0.93794    1.000
    N1031    N        0.21383    0.68574    0.90529    1.000
    N1032    N        0.22554    0.67705    0.97956    1.000
    N1033    N        0.12512    0.67126    0.93958    1.000
    Si1034   Si       0.13724    0.66575    0.98321    1.000
    Si1035   Si       0.19547    0.71086    0.99173    1.000
    Si1036   Si       0.04682    0.75181    0.08591    1.000
    N1037    N        0.03101    0.75499    0.04508    1.000
    N1038    N        0.08946    0.75899    0.09714    1.000
    N1039    N        0.08803    0.71610    0.99551    1.000
    Si1040   Si       0.23509    0.74089    0.04483    1.000
    Si1041   Si       0.11389    0.77122    0.06322    1.000
    N1042    N        0.13039    0.73402    0.04626    1.000
    N1043    N        0.17678    0.74389    0.09298    1.000
    Si1044   Si       0.12445    0.73491    0.00255    1.000
    N1045    N        0.19899    0.72093    0.03479    1.000
    N1046    N        0.07616    0.72198    0.22332    1.000
    N1047    N        0.05436    0.74435    0.15991    1.000
    Si1048   Si       0.07904    0.76652    0.23511    1.000
    Si1049   Si       0.09212    0.76263    0.14136    1.000
    N1050    N        0.20094    0.72849    0.15853    1.000
    Si1051   Si       0.21133    0.76797    0.16813    1.000
    N1052    N        0.14239    0.72145    0.21883    1.000
    Si1053   Si       0.16397    0.73432    0.13336    1.000
    N1054    N        0.13203    0.75719    0.15810    1.000
    Si1055   Si       0.14397    0.76122    0.20040    1.000
    N1056    N        0.08159    0.74940    0.27687    1.000
    N1057    N        0.04307    0.76327    0.36621    1.000
    Si1058   Si       0.10579    0.76795    0.30916    1.000
    Si1059   Si       0.05726    0.71555    0.26334    1.000
    N1060    N        0.11178    0.74849    0.34834    1.000
    Si1061   Si       0.17835    0.75169    0.30794    1.000
    N1062    N        0.19151    0.73163    0.27268    1.000
    N1063    N        0.16996    0.72160    0.33742    1.000
    Si1064   Si       0.23393    0.72617    0.26568    1.000
    Si1065   Si       0.15088    0.74459    0.36817    1.000
    Si1066   Si       0.07951    0.74445    0.37653    1.000
    N1067    N        0.09294    0.76394    0.41429    1.000
    Si1068   Si       0.01505    0.75798    0.39916    1.000
    N1069    N        0.99740    0.74539    0.48585    1.000
    N1070    N        0.01321    0.71444    0.40062    1.000
    Si1071   Si       0.17999    0.76028    0.47367    1.000
    N1072    N        0.20359    0.73850    0.39976    1.000
    N1073    N        0.14141    0.71979    0.40618    1.000
    N1074    N        0.19547    0.72217    0.46290    1.000
    Si1075   Si       0.11422    0.73561    0.43945    1.000
    N1076    N        0.13788    0.76017    0.46540    1.000
    Si1077   Si       0.24260    0.72162    0.38720    1.000
    Si1078   Si       0.02584    0.73754    0.58656    1.000
    N1079    N        0.02576    0.75884    0.54937    1.000
    Si1080   Si       0.01579    0.72668    0.52147    1.000
    N1081    N        0.07966    0.76682    0.50348    1.000
    Si1082   Si       0.08797    0.72353    0.50505    1.000
    N1083    N        0.04183    0.76241    0.61813    1.000
    Si1084   Si       0.15211    0.74694    0.54476    1.000
    Si1085   Si       0.23017    0.75883    0.52209    1.000
    N1086    N        0.18514    0.76332    0.51838    1.000
    N1087    N        0.12447    0.71775    0.52502    1.000
    N1088    N        0.16783    0.71842    0.57486    1.000
    N1089    N        0.01585    0.74312    0.71334    1.000
    Si1090   Si       0.06789    0.74613    0.64996    1.000
    N1091    N        0.11033    0.73330    0.64018    1.000
    N1092    N        0.07420    0.76965    0.68665    1.000
    Si1093   Si       0.10870    0.77054    0.71494    1.000
    Si1094   Si       0.00676    0.71729    0.68073    1.000
    N1095    N        0.09470    0.74769    0.74962    1.000
    Si1096   Si       0.22178    0.75780    0.64980    1.000
    N1097    N        0.19876    0.72720    0.72765    1.000
    Si1098   Si       0.14685    0.75628    0.64961    1.000
    N1099    N        0.18470    0.73587    0.64155    1.000
    Si1100   Si       0.19404    0.76792    0.71214    1.000
    N1101    N        0.14797    0.76327    0.69279    1.000
    N1102    N        0.02610    0.73999    0.78033    1.000
    N1103    N        0.02801    0.72993    0.85935    1.000
    Si1104   Si       0.05957    0.76526    0.76901    1.000
    Si1105   Si       0.10333    0.76873    0.82947    1.000
    Si1106   Si       0.99604    0.74518    0.75054    1.000
    Si1107   Si       0.02387    0.71798    0.81692    1.000
    N1108    N        0.08905    0.76919    0.87135    1.000
    N1109    N        0.11384    0.73091    0.81212    1.000
    N1110    N        0.19354    0.74814    0.79823    1.000
    Si1111   Si       0.19123    0.73995    0.84037    1.000
    N1112    N        0.15802    0.76580    0.85491    1.000
    N1113    N        0.22529    0.74495    0.86711    1.000
    Si1114   Si       0.19002    0.71538    0.76795    1.000
    N1115    N        0.04134    0.76651    0.97850    1.000
    Si1116   Si       0.05575    0.72740    0.96604    1.000
    Si1117   Si       0.05487    0.74457    0.89052    1.000
    N1118    N        0.07112    0.72232    0.92434    1.000
    N1119    N        0.11609    0.71078    0.88122    1.000
    Si1120   Si       0.13351    0.75183    0.89136    1.000
    N1121    N        0.16925    0.73820    0.91493    1.000
    Si1122   Si       0.21085    0.72998    0.90646    1.000
    N1123    N        0.19789    0.74915    0.97398    1.000
    Si1124   Si       0.16433    0.76808    0.95132    1.000
    N1125    N        0.13664    0.77215    0.98483    1.000
    Si1126   Si       0.23850    0.76260    0.96911    1.000
    Si1127   Si       0.04876    0.78458    0.01614    1.000
    N1128    N        0.08924    0.78690    0.03182    1.000
    N1129    N        0.03839    0.82710    0.02059    1.000
    N1130    N        0.02365    0.77908    0.10973    1.000
    Si1131   Si       0.99178    0.80672    0.09966    1.000
    Si1132   Si       0.11451    0.80611    0.00158    1.000
    N1133    N        0.14789    0.79678    0.07066    1.000
    Si1134   Si       0.18962    0.78476    0.08842    1.000
    N1135    N        0.22874    0.77958    0.06627    1.000
    N1136    N        0.14389    0.83407    0.01425    1.000
    Si1137   Si       0.00682    0.80669    0.21485    1.000
    N1138    N        0.00123    0.79578    0.17203    1.000
    N1139    N        0.07485    0.80171    0.15527    1.000
    N1140    N        0.04139    0.78521    0.23091    1.000
    Si1141   Si       0.03495    0.78256    0.15109    1.000
    N1142    N        0.11616    0.78502    0.22095    1.000
    N1143    N        0.18183    0.78210    0.19742    1.000
    Si1144   Si       0.18759    0.81911    0.21613    1.000
    N1145    N        0.20141    0.79120    0.13059    1.000
    Si1146   Si       0.11606    0.82767    0.22750    1.000
    N1147    N        0.08269    0.80213    0.31802    1.000
    Si1148   Si       0.05092    0.80277    0.34763    1.000
    N1149    N        0.02121    0.82262    0.32627    1.000
    Si1150   Si       0.19947    0.80911    0.34601    1.000
    Si1151   Si       0.22255    0.79694    0.27341    1.000
    N1152    N        0.18534    0.80970    0.25734    1.000
    Si1153   Si       0.15645    0.81840    0.28863    1.000
    N1154    N        0.21436    0.78192    0.31406    1.000
    N1155    N        0.14572    0.77850    0.30114    1.000
    N1156    N        0.17073    0.78405    0.37049    1.000
    Si1157   Si       0.07057    0.80098    0.42367    1.000
    N1158    N        0.09743    0.81851    0.45588    1.000
    Si1159   Si       0.00623    0.78561    0.46720    1.000
    N1160    N        0.03038    0.78016    0.43211    1.000
    N1161    N        0.06606    0.82269    0.38640    1.000
    Si1162   Si       0.11217    0.78928    0.48513    1.000
    Si1163   Si       0.19894    0.78259    0.40464    1.000
    N1164    N        0.22012    0.81679    0.38204    1.000
    N1165    N        0.19271    0.79375    0.44719    1.000
    Si1166   Si       0.04922    0.78885    0.52831    1.000
    N1167    N        0.06837    0.81988    0.55118    1.000
    N1168    N        0.02391    0.80868    0.49931    1.000
    Si1169   Si       0.11054    0.81161    0.55573    1.000
    N1170    N        0.13478    0.81037    0.51810    1.000
    N1171    N        0.18730    0.80580    0.57326    1.000
    Si1172   Si       0.17549    0.80603    0.53093    1.000
    Si1173   Si       0.16194    0.82342    0.60375    1.000
    Si1174   Si       0.23052    0.79989    0.58466    1.000
    N1175    N        0.12545    0.77368    0.56827    1.000
    N1176    N        0.00986    0.80274    0.67421    1.000
    N1177    N        0.04678    0.79940    0.74122    1.000
    Si1178   Si       0.03567    0.78260    0.70262    1.000
    Si1179   Si       0.00567    0.77841    0.63612    1.000
    Si1180   Si       0.07813    0.83214    0.74616    1.000
    N1181    N        0.11395    0.80785    0.73624    1.000
    Si1182   Si       0.15235    0.82562    0.73751    1.000
    N1183    N        0.14911    0.79664    0.63589    1.000
    N1184    N        0.20682    0.79128    0.67348    1.000
    Si1185   Si       0.17267    0.81790    0.66596    1.000
    N1186    N        0.18383    0.79602    0.74452    1.000
    Si1187   Si       0.07155    0.82269    0.81732    1.000
    N1188    N        0.06953    0.78041    0.80628    1.000
    N1189    N        0.04513    0.82804    0.85093    1.000
    N1190    N        0.11543    0.81165    0.82863    1.000
    Si1191   Si       0.15607    0.80772    0.84334    1.000
    Si1192   Si       0.20115    0.79006    0.78356    1.000
    N1193    N        0.17850    0.81838    0.80978    1.000
    N1194    N        0.03971    0.78164    0.90917    1.000
    Si1195   Si       0.06712    0.80515    0.88217    1.000
    Si1196   Si       0.01857    0.78862    0.94675    1.000
    N1197    N        0.08612    0.82363    0.97246    1.000
    Si1198   Si       0.10713    0.82149    0.93524    1.000
    Si1199   Si       0.22390    0.82880    0.94575    1.000
    Si1200   Si       0.16299    0.82174    0.91485    1.000
    N1201    N        0.19358    0.79898    0.93492    1.000
    N1202    N        0.13350    0.78956    0.91930    1.000
    Si1203   Si       0.03819    0.85623    0.05507    1.000
    N1204    N        0.06595    0.87619    0.08789    1.000
    N1205    N        0.01238    0.84180    0.08781    1.000
    Si1206   Si       0.10631    0.87807    0.10498    1.000
    Si1207   Si       0.02998    0.87441    0.11491    1.000
    N1208    N        0.18229    0.87656    0.03496    1.000
    N1209    N        0.13588    0.86578    0.07552    1.000
    Si1210   Si       0.22385    0.87330    0.04570    1.000
    N1211    N        0.19784    0.83444    0.08287    1.000
    Si1212   Si       0.15913    0.83572    0.05506    1.000
    Si1213   Si       0.07502    0.84384    0.16690    1.000
    N1214    N        0.03920    0.86256    0.15427    1.000
    N1215    N        0.08343    0.84819    0.20956    1.000
    N1216    N        0.01740    0.84963    0.21635    1.000
    Si1217   Si       0.05331    0.86507    0.23562    1.000
    Si1218   Si       0.00494    0.87605    0.18258    1.000
    N1219    N        0.11063    0.85883    0.14551    1.000
    Si1220   Si       0.22067    0.88295    0.16892    1.000
    Si1221   Si       0.23395    0.86158    0.24079    1.000
    Si1222   Si       0.20309    0.83572    0.12436    1.000
    N1223    N        0.18221    0.86264    0.15130    1.000
    N1224    N        0.22375    0.84085    0.20534    1.000
    Si1225   Si       0.14397    0.86777    0.17050    1.000
    N1226    N        0.15123    0.84393    0.20830    1.000
    Si1227   Si       0.02180    0.86328    0.30538    1.000
    N1228    N        0.05581    0.85805    0.27911    1.000
    Si1229   Si       0.08868    0.84172    0.30325    1.000
    N1230    N        0.09495    0.86538    0.33950    1.000
    N1231    N        0.20268    0.88141    0.26533    1.000
    Si1232   Si       0.18898    0.88331    0.30598    1.000
    N1233    N        0.18028    0.84044    0.31849    1.000
    N1234    N        0.11779    0.83397    0.27249    1.000
    Si1235   Si       0.08293    0.86389    0.38227    1.000
    N1236    N        0.03175    0.87089    0.45507    1.000
    N1237    N        0.09479    0.88688    0.47542    1.000
    Si1238   Si       0.23586    0.85249    0.40082    1.000
    N1239    N        0.11411    0.86750    0.41146    1.000
    Si1240   Si       0.19160    0.83396    0.46495    1.000
    N1241    N        0.15792    0.86296    0.46671    1.000
    Si1242   Si       0.11649    0.85673    0.45292    1.000
    N1243    N        0.22381    0.85457    0.44463    1.000
    Si1244   Si       0.05063    0.85847    0.55758    1.000
    N1245    N        0.00982    0.85334    0.57319    1.000
    N1246    N        0.03989    0.87659    0.51823    1.000
    Si1247   Si       0.01544    0.85084    0.49015    1.000
    Si1248   Si       0.11696    0.88188    0.57950    1.000
    N1249    N        0.12797    0.84104    0.58373    1.000
    Si1250   Si       0.21155    0.87122    0.52452    1.000
    N1251    N        0.19936    0.83377    0.50677    1.000
    N1252    N        0.18991    0.88380    0.55972    1.000
    N1253    N        0.08987    0.86917    0.72672    1.000
    N1254    N        0.04849    0.87443    0.66794    1.000
    Si1255   Si       0.01059    0.88564    0.65258    1.000
    Si1256   Si       0.21316    0.87415    0.64849    1.000
    N1257    N        0.16096    0.84410    0.69861    1.000
    Si1258   Si       0.15612    0.88651    0.69008    1.000
    N1259    N        0.18323    0.84857    0.63392    1.000
    Si1260   Si       0.02746    0.87064    0.78406    1.000
    N1261    N        0.06342    0.84804    0.78462    1.000
    Si1262   Si       0.01906    0.86071    0.85853    1.000
    N1263    N        0.01258    0.88716    0.82434    1.000
    N1264    N        0.99069    0.84670    0.77818    1.000
    Si1265   Si       0.17725    0.85884    0.79772    1.000
    N1266    N        0.14701    0.85776    0.76687    1.000
    N1267    N        0.21423    0.86865    0.77830    1.000
    Si1268   Si       0.14890    0.87976    0.86666    1.000
    N1269    N        0.17540    0.88709    0.83205    1.000
    N1270    N        0.23887    0.85442    0.83931    1.000
    Si1271   Si       0.12157    0.88812    0.75211    1.000
    Si1272   Si       0.08098    0.88074    0.89041    1.000
    Si1273   Si       0.04988    0.84487    0.98169    1.000
    N1274    N        0.03940    0.88368    0.88966    1.000
    N1275    N        0.05187    0.88863    0.97449    1.000
    N1276    N        0.08709    0.83832    0.90179    1.000
    N1277    N        0.01522    0.83053    0.95682    1.000
    N1278    N        0.20244    0.85637    0.97542    1.000
    Si1279   Si       0.23265    0.88675    0.97830    1.000
    N1280    N        0.14116    0.84852    0.94181    1.000
    N1281    N        0.16122    0.83585    0.87589    1.000
    N1282    N        0.22487    0.85232    0.90863    1.000
    Si1283   Si       0.13807    0.89164    0.93458    1.000
    Si1284   Si       0.16456    0.86548    0.99427    1.000
    Si1285   Si       0.04848    0.91608    0.07506    1.000
    N1286    N        0.01279    0.91135    0.10072    1.000
    Si1287   Si       0.02157    0.91070    0.99969    1.000
    N1288    N        0.03543    0.89615    0.03889    1.000
    Si1289   Si       0.11612    0.94619    0.07423    1.000
    N1290    N        0.12317    0.91944    0.10698    1.000
    N1291    N        0.13344    0.92836    0.03765    1.000
    N1292    N        0.18839    0.92851    0.07959    1.000
    Si1293   Si       0.15893    0.90097    0.06082    1.000
    Si1294   Si       0.22746    0.92472    0.09867    1.000
    Si1295   Si       0.12984    0.93673    0.99477    1.000
    N1296    N        0.07921    0.92530    0.15966    1.000
    Si1297   Si       0.04833    0.93223    0.18807    1.000
    N1298    N        0.00962    0.92043    0.16810    1.000
    N1299    N        0.04591    0.90926    0.22428    1.000
    Si1300   Si       0.00369    0.94722    0.13251    1.000
    N1301    N        0.17667    0.93626    0.24663    1.000
    N1302    N        0.21311    0.90725    0.20273    1.000
    N1303    N        0.14420    0.91214    0.17956    1.000
    Si1304   Si       0.23143    0.95010    0.17602    1.000
    Si1305   Si       0.17393    0.92869    0.20444    1.000
    N1306    N        0.22548    0.92039    0.14351    1.000
    Si1307   Si       0.12078    0.93519    0.15002    1.000
    N1308    N        0.09188    0.93104    0.33029    1.000
    Si1309   Si       0.05555    0.91890    0.35201    1.000
    Si1310   Si       0.00008    0.93372    0.32392    1.000
    N1311    N        0.99724    0.91364    0.28033    1.000
    Si1312   Si       0.02362    0.93455    0.25349    1.000
    N1313    N        0.02407    0.89526    0.33216    1.000
    Si1314   Si       0.12140    0.89818    0.33500    1.000
    N1315    N        0.15030    0.90554    0.30226    1.000
    N1316    N        0.22217    0.91149    0.32183    1.000
    Si1317   Si       0.15674    0.94431    0.28316    1.000
    N1318    N        0.15095    0.90306    0.36670    1.000
    Si1319   Si       0.21871    0.91830    0.24863    1.000
    N1320    N        0.04027    0.93211    0.44504    1.000
    Si1321   Si       0.05379    0.90265    0.47981    1.000
    N1322    N        0.05450    0.89581    0.39015    1.000
    Si1323   Si       0.02350    0.89645    0.42148    1.000
    N1324    N        0.11126    0.93954    0.41943    1.000
    Si1325   Si       0.19008    0.91411    0.38439    1.000
    Si1326   Si       0.13394    0.90556    0.40541    1.000
    N1327    N        0.22638    0.89121    0.38221    1.000
    N1328    N        0.17226    0.91321    0.42613    1.000
    N1329    N        0.14416    0.93608    0.48195    1.000
    Si1330   Si       0.17472    0.90330    0.46839    1.000
    Si1331   Si       0.05680    0.92210    0.60218    1.000
    Si1332   Si       0.99724    0.93696    0.58848    1.000
    N1333    N        0.07486    0.93660    0.50489    1.000
    Si1334   Si       0.11214    0.91297    0.50378    1.000
    N1335    N        0.07374    0.88878    0.58012    1.000
    Si1336   Si       0.16361    0.91697    0.56755    1.000
    N1337    N        0.13856    0.91114    0.60371    1.000
    N1338    N        0.12746    0.90357    0.54253    1.000
    N1339    N        0.23825    0.89536    0.61842    1.000
    Si1340   Si       0.22908    0.94578    0.49513    1.000
    N1341    N        0.20905    0.90690    0.49627    1.000
    N1342    N        0.01773    0.91508    0.61917    1.000
    N1343    N        0.99108    0.90674    0.68479    1.000
    N1344    N        0.08195    0.94194    0.63232    1.000
    N1345    N        0.06127    0.92907    0.70941    1.000
    Si1346   Si       0.07943    0.89240    0.69190    1.000
    N1347    N        0.15115    0.91193    0.72792    1.000
    Si1348   Si       0.21544    0.93501    0.69303    1.000
    N1349    N        0.11612    0.89720    0.67116    1.000
    N1350    N        0.19218    0.90616    0.67223    1.000
    N1351    N        0.23385    0.91824    0.72925    1.000
    Si1352   Si       0.12176    0.92745    0.64060    1.000
    N1353    N        0.09656    0.91327    0.77939    1.000
    Si1354   Si       0.01545    0.92945    0.83113    1.000
    Si1355   Si       0.09762    0.92288    0.82503    1.000
    N1356    N        0.02659    0.90620    0.76094    1.000
    N1357    N        0.05679    0.94247    0.82543    1.000
    Si1358   Si       0.06439    0.92638    0.75240    1.000
    Si1359   Si       0.99202    0.93397    0.76278    1.000
    N1360    N        0.99998    0.93589    0.87249    1.000
    N1361    N        0.10793    0.89487    0.85670    1.000
    N1362    N        0.98943    0.94921    0.80341    1.000
    N1363    N        0.23393    0.91873    0.81021    1.000
    Si1364   Si       0.22072    0.91238    0.76915    1.000
    N1365    N        0.19238    0.94699    0.77552    1.000
    Si1366   Si       0.21810    0.89529    0.84104    1.000
    N1367    N        0.03154    0.94103    0.93382    1.000
    Si1368   Si       0.06815    0.92154    0.95128    1.000
    N1369    N        0.09712    0.90480    0.92374    1.000
    Si1370   Si       0.01248    0.91343    0.90583    1.000
    N1371    N        0.08811    0.94556    0.98104    1.000
    N1372    N        0.00631    0.95122    0.99401    1.000
    Si1373   Si       0.20763    0.89473    0.91070    1.000
    N1374    N        0.22084    0.91479    0.94670    1.000
    N1375    N        0.23008    0.90955    0.87840    1.000
    N1376    N        0.14636    0.90160    0.97767    1.000
    N1377    N        0.16524    0.89921    0.90243    1.000
    Si1378   Si       0.05163    0.98908    0.08020    1.000
    N1379    N        0.03216    0.99327    0.04174    1.000
    Si1380   Si       0.99540    0.96858    0.03393    1.000
    N1381    N        0.02570    0.98278    0.11494    1.000
    N1382    N        0.07401    0.95067    0.07566    1.000
    N1383    N        0.20169    0.98220    0.03524    1.000
    N1384    N        0.13819    0.98402    0.07500    1.000
    Si1385   Si       0.17978    0.97103    0.07071    1.000
    N1386    N        0.19360    0.99071    0.10883    1.000
    Si1387   Si       0.23593    0.99552    0.11290    1.000
    Si1388   Si       0.01156    0.99503    0.20225    1.000
    N1389    N        0.05075    0.97232    0.20018    1.000
    Si1390   Si       0.06117    0.98945    0.23721    1.000
    N1391    N        0.99346    0.96094    0.23002    1.000
    N1392    N        0.98764    0.97846    0.16800    1.000
    Si1393   Si       0.19006    0.00746    0.20139    1.000
    N1394    N        0.19169    0.96649    0.18979    1.000
    N1395    N        0.13297    0.97782    0.14354    1.000
    Si1396   Si       0.16101    0.00596    0.13169    1.000
    Si1397   Si       0.03148    0.98963    0.31985    1.000
    Si1398   Si       0.08949    0.96090    0.29785    1.000
    N1399    N        0.07557    0.99920    0.31451    1.000
    N1400    N        0.05632    0.95928    0.26905    1.000
    N1401    N        0.03131    0.95417    0.34910    1.000
    N1402    N        0.99566    0.97371    0.30062    1.000
    N1403    N        0.12403    0.96804    0.27400    1.000
    Si1404   Si       0.17751    0.98401    0.34876    1.000
    N1405    N        0.18267    0.96701    0.30930    1.000
    N1406    N        0.23686    0.95344    0.26843    1.000
    Si1407   Si       0.22372    0.95252    0.30849    1.000
    N1408    N        0.13971    0.00498    0.35469    1.000
    N1409    N        0.99231    0.96469    0.40730    1.000
    Si1410   Si       0.02150    0.98071    0.38095    1.000
    N1411    N        0.01704    0.99508    0.46829    1.000
    N1412    N        0.05443    0.98775    0.40894    1.000
    N1413    N        0.09115    0.98399    0.46048    1.000
    Si1414   Si       0.00553    0.95927    0.44612    1.000
    Si1415   Si       0.07269    0.95541    0.42866    1.000
    Si1416   Si       0.19156    0.00647    0.45924    1.000
    Si1417   Si       0.22475    0.98907    0.38546    1.000
    N1418    N        0.19692    0.97742    0.49160    1.000
    N1419    N        0.19470    0.95786    0.37861    1.000
    N1420    N        0.15413    0.99763    0.44214    1.000
    Si1421   Si       0.13281    0.96167    0.44978    1.000
    N1422    N        0.22058    0.00221    0.42951    1.000
    Si1423   Si       0.02849    0.98798    0.55540    1.000
    Si1424   Si       0.08566    0.97853    0.50390    1.000
    N1425    N        0.05544    0.00140    0.52302    1.000
    N1426    N        0.03707    0.95032    0.57368    1.000
    N1427    N        0.99069    0.98320    0.53311    1.000
    N1428    N        0.12346    0.98526    0.52272    1.000
    Si1429   Si       0.21427    0.96986    0.55909    1.000
    Si1430   Si       0.16057    0.96505    0.50986    1.000
    N1431    N        0.20479    0.95475    0.60110    1.000
    N1432    N        0.15033    0.00221    0.59438    1.000
    N1433    N        0.17651    0.95323    0.54673    1.000
    Si1434   Si       0.17124    0.97301    0.61984    1.000
    N1435    N        0.99492    0.96530    0.73209    1.000
    Si1436   Si       0.06639    0.97554    0.65578    1.000
    N1437    N        0.02489    0.97698    0.67503    1.000
    Si1438   Si       0.04813    0.97544    0.71704    1.000
    N1439    N        0.08326    0.98851    0.69503    1.000
    Si1440   Si       0.11190    0.00796    0.71947    1.000
    Si1441   Si       0.99052    0.94999    0.68903    1.000
    Si1442   Si       0.16787    0.98818    0.67925    1.000
    Si1443   Si       0.16448    0.95093    0.74213    1.000
    Si1444   Si       0.23218    0.00081    0.65779    1.000
    N1445    N        0.23512    0.95950    0.66396    1.000
    Si1446   Si       0.22658    0.99625    0.72634    1.000
    N1447    N        0.19229    0.97004    0.71142    1.000
    N1448    N        0.14822    0.95948    0.65425    1.000
    N1449    N        0.05614    0.96780    0.76105    1.000
    Si1450   Si       0.05570    0.97927    0.80440    1.000
    N1451    N        0.08984    0.00759    0.80379    1.000
    N1452    N        0.02366    0.00274    0.81929    1.000
    Si1453   Si       0.12324    0.98414    0.78720    1.000
    Si1454   Si       0.15521    0.98513    0.83769    1.000
    N1455    N        0.19495    0.97572    0.85050    1.000
    Si1456   Si       0.21333    0.95858    0.81159    1.000
    N1457    N        0.12676    0.95579    0.82141    1.000
    N1458    N        0.16011    0.00559    0.79959    1.000
    N1459    N        0.12846    0.97696    0.74522    1.000
    N1460    N        0.09992    0.00033    0.93238    1.000
    Si1461   Si       0.10311    0.98741    0.97372    1.000
    Si1462   Si       0.00607    0.97110    0.95596    1.000
    N1463    N        0.22874    0.97953    0.91932    1.000
    N1464    N        0.14394    0.97451    0.97981    1.000
    Si1465   Si       0.16771    0.00525    0.96080    1.000
    Si1466   Si       0.20221    0.99694    0.88971    1.000
    N1467    N        0.25719    0.02662    0.02119    1.000
    N1468    N        0.25366    0.03363    0.10114    1.000
    N1469    N        0.30948    0.05967    0.02123    1.000
    Si1470   Si       0.29973    0.01680    0.02095    1.000
    N1471    N        0.37017    0.04403    0.05628    1.000
    Si1472   Si       0.40780    0.05311    0.08017    1.000
    Si1473   Si       0.47332    0.01898    0.09497    1.000
    Si1474   Si       0.48079    0.03024    0.01518    1.000
    N1475    N        0.42884    0.01273    0.08635    1.000
    N1476    N        0.39621    0.05867    0.11994    1.000
    N1477    N        0.48285    0.03996    0.05759    1.000
    N1478    N        0.34878    0.05375    0.21556    1.000
    Si1479   Si       0.33314    0.01622    0.23144    1.000
    N1480    N        0.29284    0.01020    0.21375    1.000
    Si1481   Si       0.26239    0.04059    0.20980    1.000
    N1482    N        0.30636    0.01737    0.14534    1.000
    Si1483   Si       0.27786    0.05017    0.13242    1.000
    N1484    N        0.25176    0.05199    0.16855    1.000
    N1485    N        0.42637    0.04480    0.22625    1.000
    Si1486   Si       0.38909    0.03699    0.20218    1.000
    Si1487   Si       0.44551    0.00909    0.24350    1.000
    Si1488   Si       0.30297    0.02006    0.29833    1.000
    Si1489   Si       0.34800    0.01845    0.35495    1.000
    N1490    N        0.34761    0.06286    0.35006    1.000
    Si1491   Si       0.25104    0.04953    0.27610    1.000
    N1492    N        0.28572    0.06203    0.30228    1.000
    N1493    N        0.33841    0.01699    0.27332    1.000
    N1494    N        0.26795    0.00915    0.27464    1.000
    Si1495   Si       0.41498    0.02242    0.31666    1.000
    N1496    N        0.48560    0.01981    0.25945    1.000
    N1497    N        0.41610    0.06577    0.31367    1.000
    Si1498   Si       0.30200    0.03528    0.48139    1.000
    Si1499   Si       0.44028    0.01896    0.38393    1.000
    N1500    N        0.36830    0.04400    0.45094    1.000
    N1501    N        0.48152    0.02885    0.39363    1.000
    Si1502   Si       0.48121    0.05051    0.43065    1.000
    Si1503   Si       0.38449    0.02305    0.41561    1.000
    Si1504   Si       0.36661    0.01223    0.48184    1.000
    N1505    N        0.44611    0.05522    0.46102    1.000
    N1506    N        0.41019    0.05135    0.38875    1.000
    N1507    N        0.35077    0.05094    0.57155    1.000
    Si1508   Si       0.26426    0.02647    0.54499    1.000
    N1509    N        0.33402    0.02325    0.50752    1.000
    Si1510   Si       0.35090    0.03808    0.61499    1.000
    Si1511   Si       0.33602    0.01414    0.55014    1.000
    N1512    N        0.26353    0.02831    0.50207    1.000
    N1513    N        0.28375    0.06225    0.55751    1.000
    N1514    N        0.31459    0.06102    0.62283    1.000
    N1515    N        0.40572    0.02883    0.59678    1.000
    N1516    N        0.46924    0.02939    0.51863    1.000
    Si1517   Si       0.39378    0.06185    0.56818    1.000
    Si1518   Si       0.43102    0.04319    0.50031    1.000
    N1519    N        0.40746    0.00766    0.49652    1.000
    Si1520   Si       0.28602    0.04689    0.65252    1.000
    Si1521   Si       0.34493    0.05890    0.68480    1.000
    N1522    N        0.30802    0.03618    0.68790    1.000
    Si1523   Si       0.29471    0.01295    0.72562    1.000
    N1524    N        0.26719    0.01390    0.63354    1.000
    N1525    N        0.37106    0.04515    0.71790    1.000
    N1526    N        0.37370    0.05036    0.65054    1.000
    N1527    N        0.47807    0.03639    0.71337    1.000
    Si1528   Si       0.41392    0.03876    0.63903    1.000
    N1529    N        0.42990    0.00911    0.66571    1.000
    Si1530   Si       0.47130    0.00891    0.67975    1.000
    N1531    N        0.26022    0.04316    0.82155    1.000
    Si1532   Si       0.25593    0.01944    0.78704    1.000
    Si1533   Si       0.26610    0.03601    0.86460    1.000
    N1534    N        0.28288    0.03855    0.75866    1.000
    N1535    N        0.35296    0.01941    0.84336    1.000
    Si1536   Si       0.37872    0.05076    0.81958    1.000
    N1537    N        0.40675    0.06120    0.85143    1.000
    N1538    N        0.38849    0.01327    0.79408    1.000
    Si1539   Si       0.32650    0.01714    0.87676    1.000
    N1540    N        0.30391    0.05709    0.88212    1.000
    N1541    N        0.26730    0.04115    0.94172    1.000
    N1542    N        0.34326    0.05616    0.94015    1.000
    Si1543   Si       0.30297    0.06117    0.92704    1.000
    N1544    N        0.46456    0.01118    0.94918    1.000
    Si1545   Si       0.42501    0.03658    0.88256    1.000
    N1546    N        0.40217    0.04829    0.91849    1.000
    N1547    N        0.46966    0.04655    0.88356    1.000
    Si1548   Si       0.37098    0.02189    0.93854    1.000
    Si1549   Si       0.48533    0.03853    0.92483    1.000
    N1550    N        0.33197    0.09336    0.08158    1.000
    N1551    N        0.25730    0.08629    0.05855    1.000
    Si1552   Si       0.34171    0.07463    0.04367    1.000
    Si1553   Si       0.32059    0.10958    0.12034    1.000
    N1554    N        0.35810    0.10843    0.02363    1.000
    Si1555   Si       0.26743    0.06978    0.01947    1.000
    N1556    N        0.42876    0.08203    0.05910    1.000
    Si1557   Si       0.41753    0.12136    0.04681    1.000
    Si1558   Si       0.47247    0.08515    0.04841    1.000
    N1559    N        0.47412    0.07216    0.00442    1.000
    N1560    N        0.35409    0.12267    0.22086    1.000
    Si1561   Si       0.35174    0.09031    0.19323    1.000
    N1562    N        0.34382    0.09414    0.15186    1.000
    N1563    N        0.28083    0.09601    0.12694    1.000
    N1564    N        0.26154    0.07059    0.23777    1.000
    Si1565   Si       0.26477    0.11324    0.24399    1.000
    N1566    N        0.39534    0.07998    0.18666    1.000
    Si1567   Si       0.38679    0.09093    0.14468    1.000
    Si1568   Si       0.42577    0.08786    0.22074    1.000
    Si1569   Si       0.30883    0.09943    0.30813    1.000
    N1570    N        0.35156    0.10382    0.29748    1.000
    N1571    N        0.30763    0.11576    0.34859    1.000
    N1572    N        0.40903    0.10397    0.25957    1.000
    Si1573   Si       0.44026    0.09214    0.28708    1.000
    N1574    N        0.39677    0.11299    0.35651    1.000
    N1575    N        0.46708    0.11540    0.31426    1.000
    Si1576   Si       0.37778    0.08672    0.32850    1.000
    Si1577   Si       0.36986    0.12093    0.26213    1.000
    N1578    N        0.47045    0.09209    0.25311    1.000
    Si1579   Si       0.32445    0.08909    0.37845    1.000
    N1580    N        0.28907    0.08502    0.40291    1.000
    Si1581   Si       0.25002    0.10032    0.39181    1.000
    Si1582   Si       0.35003    0.08268    0.45202    1.000
    N1583    N        0.35547    0.09075    0.40940    1.000
    Si1584   Si       0.27474    0.09206    0.44486    1.000
    N1585    N        0.30746    0.07695    0.46836    1.000
    N1586    N        0.36872    0.11797    0.46661    1.000
    N1587    N        0.41878    0.11317    0.42556    1.000
    N1588    N        0.48423    0.09494    0.42983    1.000
    Si1589   Si       0.44691    0.09794    0.45492    1.000
    Si1590   Si       0.39647    0.09181    0.39441    1.000
    N1591    N        0.45278    0.11378    0.49512    1.000
    Si1592   Si       0.25996    0.09828    0.55609    1.000
    N1593    N        0.27406    0.10947    0.59653    1.000
    Si1594   Si       0.31434    0.08013    0.58277    1.000
    N1595    N        0.33228    0.11737    0.56711    1.000
    N1596    N        0.39955    0.09889    0.59065    1.000
    Si1597   Si       0.43385    0.10861    0.53354    1.000
    N1598    N        0.46645    0.11547    0.56462    1.000
    N1599    N        0.41667    0.06803    0.53270    1.000
    Si1600   Si       0.25249    0.11088    0.63501    1.000
    N1601    N        0.26045    0.09610    0.72579    1.000
    N1602    N        0.33305    0.10045    0.68310    1.000
    N1603    N        0.25735    0.07737    0.66041    1.000
    Si1604   Si       0.34001    0.11980    0.72200    1.000
    N1605    N        0.44222    0.07198    0.63760    1.000
    N1606    N        0.39366    0.12252    0.65532    1.000
    Si1607   Si       0.48262    0.07843    0.72450    1.000
    N1608    N        0.44025    0.08768    0.73523    1.000
    Si1609   Si       0.42018    0.10848    0.62521    1.000
    N1610    N        0.38173    0.11058    0.72975    1.000
    Si1611   Si       0.48428    0.07114    0.64869    1.000
    Si1612   Si       0.39751    0.07092    0.74221    1.000
    N1613    N        0.25877    0.10247    0.79215    1.000
    Si1614   Si       0.28254    0.08249    0.75987    1.000
    N1615    N        0.34267    0.08005    0.82581    1.000
    Si1616   Si       0.35133    0.10374    0.78812    1.000
    N1617    N        0.32175    0.10054    0.75633    1.000
    Si1618   Si       0.32587    0.09081    0.86329    1.000
    N1619    N        0.38986    0.08138    0.78413    1.000
    Si1620   Si       0.41808    0.11296    0.79905    1.000
    N1621    N        0.45724    0.10675    0.81418    1.000
    Si1622   Si       0.40064    0.10044    0.86982    1.000
    N1623    N        0.28884    0.10095    0.93472    1.000
    Si1624   Si       0.25015    0.08087    0.94516    1.000
    N1625    N        0.24772    0.09187    0.98736    1.000
    N1626    N        0.36213    0.09770    0.88842    1.000
    N1627    N        0.43197    0.11614    0.89594    1.000
    N1628    N        0.47904    0.08060    0.93679    1.000
    Si1629   Si       0.46796    0.09015    0.89553    1.000
    N1630    N        0.38704    0.11226    0.95114    1.000
    Si1631   Si       0.37536    0.08177    0.92635    1.000
    N1632    N        0.33480    0.15039    0.10656    1.000
    N1633    N        0.30553    0.14430    0.04144    1.000
    N1634    N        0.24735    0.14799    0.09689    1.000
    Si1635   Si       0.30731    0.16907    0.00489    1.000
    Si1636   Si       0.26670    0.12906    0.06175    1.000
    Si1637   Si       0.34156    0.13198    0.06259    1.000
    Si1638   Si       0.30795    0.18276    0.11773    1.000
    Si1639   Si       0.38131    0.15450    0.11015    1.000
    Si1640   Si       0.45822    0.14883    0.00832    1.000
    N1641    N        0.41586    0.13699    0.00529    1.000
    N1642    N        0.38885    0.14138    0.07065    1.000
    N1643    N        0.46188    0.13269    0.04885    1.000
    Si1644   Si       0.48355    0.17856    0.12011    1.000
    Si1645   Si       0.29030    0.17309    0.19053    1.000
    N1646    N        0.28798    0.16080    0.14843    1.000
    N1647    N        0.26768    0.14025    0.20782    1.000
    Si1648   Si       0.25435    0.13018    0.13724    1.000
    Si1649   Si       0.36121    0.16471    0.21899    1.000
    N1650    N        0.39482    0.17787    0.19252    1.000
    Si1651   Si       0.42167    0.15063    0.17205    1.000
    N1652    N        0.44120    0.12508    0.20389    1.000
    N1653    N        0.45371    0.16999    0.15044    1.000
    N1654    N        0.39647    0.13174    0.14294    1.000
    Si1655   Si       0.47632    0.12941    0.23071    1.000
    N1656    N        0.25992    0.16370    0.32459    1.000
    Si1657   Si       0.28307    0.16843    0.28848    1.000
    Si1658   Si       0.28464    0.15135    0.35791    1.000
    N1659    N        0.31514    0.17932    0.37110    1.000
    N1660    N        0.29106    0.12682    0.27787    1.000
    N1661    N        0.43791    0.16815    0.36149    1.000
    N1662    N        0.37606    0.16629    0.26035    1.000
    Si1663   Si       0.45902    0.15713    0.32579    1.000
    Si1664   Si       0.39735    0.15592    0.36288    1.000
    N1665    N        0.37448    0.17560    0.33112    1.000
    N1666    N        0.43395    0.17776    0.29550    1.000
    Si1667   Si       0.27056    0.16370    0.42925    1.000
    N1668    N        0.25989    0.14320    0.39174    1.000
    N1669    N        0.31452    0.17084    0.44293    1.000
    N1670    N        0.26360    0.13269    0.45973    1.000
    N1671    N        0.39601    0.17393    0.47276    1.000
    N1672    N        0.37627    0.16158    0.40309    1.000
    N1673    N        0.48650    0.15797    0.45877    1.000
    Si1674   Si       0.39244    0.14669    0.43888    1.000
    Si1675   Si       0.31235    0.15046    0.54745    1.000
    N1676    N        0.33535    0.16288    0.51307    1.000
    Si1677   Si       0.29439    0.14727    0.61032    1.000
    N1678    N        0.29514    0.17629    0.57848    1.000
    N1679    N        0.27660    0.12938    0.53106    1.000
    Si1680   Si       0.25515    0.15003    0.50069    1.000
    N1681    N        0.37612    0.16849    0.58178    1.000
    Si1682   Si       0.46292    0.15592    0.58632    1.000
    N1683    N        0.44310    0.18090    0.55811    1.000
    Si1684   Si       0.37444    0.14615    0.49903    1.000
    Si1685   Si       0.37501    0.12735    0.56909    1.000
    N1686    N        0.39726    0.13086    0.53208    1.000
    N1687    N        0.34935    0.15991    0.70214    1.000
    Si1688   Si       0.35367    0.13641    0.66571    1.000
    N1689    N        0.33146    0.15125    0.63115    1.000
    N1690    N        0.26464    0.15190    0.64349    1.000
    N1691    N        0.27106    0.16845    0.71174    1.000
    Si1692   Si       0.42166    0.12659    0.72861    1.000
    Si1693   Si       0.48461    0.13799    0.69272    1.000
    Si1694   Si       0.42139    0.16248    0.65942    1.000
    N1695    N        0.44071    0.14769    0.69567    1.000
    N1696    N        0.44079    0.14715    0.62187    1.000
    N1697    N        0.35374    0.14838    0.79376    1.000
    Si1698   Si       0.25554    0.14641    0.79120    1.000
    N1699    N        0.28673    0.17421    0.78115    1.000
    Si1700   Si       0.25755    0.13314    0.86204    1.000
    N1701    N        0.35214    0.18067    0.85811    1.000
    Si1702   Si       0.33029    0.18243    0.78398    1.000
    N1703    N        0.30112    0.12714    0.85985    1.000
    Si1704   Si       0.37850    0.16306    0.82835    1.000
    N1705    N        0.42294    0.14612    0.76777    1.000
    N1706    N        0.40039    0.12754    0.83585    1.000
    Si1707   Si       0.31501    0.16679    0.87405    1.000
    N1708    N        0.31593    0.16594    0.91799    1.000
    N1709    N        0.25270    0.15394    0.90036    1.000
    Si1710   Si       0.28293    0.14297    0.93172    1.000
    N1711    N        0.34630    0.16171    0.98352    1.000
    N1712    N        0.27717    0.15638    0.97564    1.000
    Si1713   Si       0.34562    0.18434    0.94407    1.000
    Si1714   Si       0.24285    0.13446    0.99183    1.000
    N1715    N        0.42924    0.18437    0.87815    1.000
    Si1716   Si       0.45975    0.15696    0.89268    1.000
    Si1717   Si       0.41200    0.14070    0.92829    1.000
    N1718    N        0.44951    0.16251    0.93541    1.000
    N1719    N        0.38514    0.17519    0.92795    1.000
    Si1720   Si       0.37678    0.12873    0.98974    1.000
    N1721    N        0.49160    0.13727    0.98427    1.000
    N1722    N        0.31224    0.21067    0.01518    1.000
    Si1723   Si       0.30962    0.22497    0.05534    1.000
    N1724    N        0.28668    0.19990    0.08366    1.000
    N1725    N        0.35040    0.23002    0.06860    1.000
    Si1726   Si       0.24579    0.19277    0.09646    1.000
    Si1727   Si       0.36246    0.22703    0.11078    1.000
    Si1728   Si       0.42963    0.21681    0.09686    1.000
    N1729    N        0.39409    0.19647    0.11071    1.000
    N1730    N        0.45789    0.19396    0.00776    1.000
    N1731    N        0.46499    0.19362    0.08238    1.000
    N1732    N        0.38200    0.23278    0.00670    1.000
    Si1733   Si       0.47957    0.20477    0.04384    1.000
    N1734    N        0.42352    0.23921    0.05987    1.000
    N1735    N        0.32518    0.21981    0.13145    1.000
    Si1736   Si       0.26827    0.22479    0.23829    1.000
    N1737    N        0.27130    0.21318    0.19594    1.000
    Si1738   Si       0.32959    0.23114    0.21085    1.000
    Si1739   Si       0.24961    0.23718    0.16897    1.000
    N1740    N        0.32803    0.18886    0.20665    1.000
    N1741    N        0.30599    0.24098    0.24714    1.000
    N1742    N        0.44432    0.21251    0.22944    1.000
    N1743    N        0.37181    0.23924    0.22534    1.000
    Si1744   Si       0.40663    0.21571    0.21169    1.000
    N1745    N        0.44903    0.24173    0.12595    1.000
    Si1746   Si       0.48982    0.24504    0.14092    1.000
    Si1747   Si       0.33565    0.19648    0.33836    1.000
    N1748    N        0.31265    0.20202    0.30122    1.000
    N1749    N        0.34801    0.23642    0.34880    1.000
    N1750    N        0.26157    0.18464    0.25465    1.000
    Si1751   Si       0.39375    0.18914    0.29338    1.000
    N1752    N        0.47503    0.22746    0.35760    1.000
    Si1753   Si       0.46184    0.19673    0.26587    1.000
    N1754    N        0.39361    0.23285    0.28947    1.000
    N1755    N        0.40767    0.23910    0.35410    1.000
    Si1756   Si       0.24761    0.21555    0.47761    1.000
    N1757    N        0.34697    0.22310    0.41238    1.000
    N1758    N        0.33166    0.22745    0.47734    1.000
    N1759    N        0.25375    0.20307    0.43410    1.000
    Si1760   Si       0.31446    0.18653    0.48351    1.000
    Si1761   Si       0.25417    0.24035    0.41178    1.000
    N1762    N        0.27346    0.18842    0.49682    1.000
    Si1763   Si       0.33839    0.18146    0.40880    1.000
    Si1764   Si       0.37462    0.24014    0.38287    1.000
    Si1765   Si       0.40990    0.21370    0.48908    1.000
    Si1766   Si       0.48206    0.20110    0.46057    1.000
    N1767    N        0.45474    0.21153    0.49252    1.000
    N1768    N        0.46661    0.21715    0.42058    1.000
    Si1769   Si       0.46498    0.19456    0.38350    1.000
    Si1770   Si       0.29656    0.21818    0.58660    1.000
    N1771    N        0.33481    0.22080    0.61085    1.000
    N1772    N        0.27180    0.22688    0.62002    1.000
    Si1773   Si       0.35679    0.18351    0.61841    1.000
    N1774    N        0.48920    0.23501    0.54750    1.000
    N1775    N        0.39159    0.21797    0.52822    1.000
    Si1776   Si       0.47153    0.19871    0.53175    1.000
    N1777    N        0.40733    0.23234    0.58680    1.000
    Si1778   Si       0.40337    0.19548    0.56356    1.000
    N1779    N        0.25651    0.23210    0.72933    1.000
    Si1780   Si       0.34347    0.20189    0.70496    1.000
    N1781    N        0.31136    0.20838    0.67572    1.000
    Si1782   Si       0.31019    0.23895    0.64299    1.000
    N1783    N        0.32410    0.20549    0.74403    1.000
    Si1784   Si       0.27917    0.19655    0.74365    1.000
    Si1785   Si       0.27328    0.18563    0.67294    1.000
    N1786    N        0.44301    0.21332    0.66209    1.000
    Si1787   Si       0.40009    0.22479    0.66776    1.000
    N1788    N        0.37907    0.22690    0.70762    1.000
    N1789    N        0.48133    0.22181    0.71837    1.000
    Si1790   Si       0.47744    0.23604    0.67618    1.000
    N1791    N        0.38481    0.18726    0.65116    1.000
    N1792    N        0.34718    0.21719    0.80442    1.000
    Si1793   Si       0.33268    0.21907    0.84578    1.000
    N1794    N        0.29217    0.20262    0.86009    1.000
    Si1795   Si       0.26446    0.23390    0.87152    1.000
    N1796    N        0.46690    0.22689    0.84449    1.000
    Si1797   Si       0.42443    0.22087    0.85366    1.000
    N1798    N        0.41692    0.22455    0.76306    1.000
    N1799    N        0.47305    0.19398    0.77760    1.000
    Si1800   Si       0.38833    0.23170    0.79503    1.000
    N1801    N        0.40739    0.19243    0.81668    1.000
    Si1802   Si       0.45685    0.24130    0.75149    1.000
    Si1803   Si       0.43073    0.18616    0.77950    1.000
    N1804    N        0.33826    0.22675    0.94856    1.000
    Si1805   Si       0.34162    0.23086    0.99091    1.000
    Si1806   Si       0.45958    0.19517    0.96405    1.000
    N1807    N        0.43001    0.22210    0.95176    1.000
    N1808    N        0.41047    0.24356    0.89353    1.000
    Si1809   Si       0.41404    0.20535    0.91448    1.000
    N1810    N        0.29292    0.26503    0.04973    1.000
    N1811    N        0.32106    0.28497    0.11130    1.000
    Si1812   Si       0.28650    0.27232    0.00561    1.000
    Si1813   Si       0.29441    0.29887    0.07869    1.000
    Si1814   Si       0.36170    0.29365    0.10237    1.000
    N1815    N        0.33051    0.27258    0.99865    1.000
    Si1816   Si       0.38383    0.24858    0.04731    1.000
    N1817    N        0.37661    0.29044    0.05779    1.000
    Si1818   Si       0.45111    0.26809    0.04229    1.000
    N1819    N        0.44196    0.27526    0.00012    1.000
    N1820    N        0.38526    0.26281    0.12047    1.000
    N1821    N        0.48923    0.24712    0.05116    1.000
    N1822    N        0.44318    0.30405    0.06662    1.000
    N1823    N        0.33491    0.25980    0.18003    1.000
    N1824    N        0.27057    0.27214    0.15930    1.000
    Si1825   Si       0.31104    0.25974    0.14545    1.000
    Si1826   Si       0.37767    0.26746    0.19232    1.000
    N1827    N        0.46660    0.27292    0.24087    1.000
    N1828    N        0.41838    0.24917    0.18459    1.000
    N1829    N        0.45389    0.30035    0.15838    1.000
    Si1830   Si       0.42145    0.27355    0.14749    1.000
    Si1831   Si       0.45846    0.24656    0.20827    1.000
    N1832    N        0.38605    0.30475    0.17184    1.000
    N1833    N        0.34417    0.27046    0.29305    1.000
    N1834    N        0.27313    0.26476    0.30390    1.000
    Si1835   Si       0.27323    0.28615    0.34129    1.000
    Si1836   Si       0.30957    0.24627    0.29133    1.000
    Si1837   Si       0.37472    0.26176    0.26333    1.000
    N1838    N        0.44637    0.28169    0.30952    1.000
    Si1839   Si       0.44590    0.25919    0.34778    1.000
    Si1840   Si       0.37818    0.25606    0.32510    1.000
    Si1841   Si       0.43919    0.29368    0.26743    1.000
    N1842    N        0.39748    0.29734    0.25504    1.000
    N1843    N        0.37928    0.29787    0.33968    1.000
    N1844    N        0.26746    0.25734    0.37357    1.000
    N1845    N        0.33472    0.28748    0.46224    1.000
    Si1846   Si       0.28575    0.28288    0.47261    1.000
    N1847    N        0.28444    0.25897    0.43640    1.000
    Si1848   Si       0.35737    0.26032    0.49310    1.000
    Si1849   Si       0.32753    0.24992    0.43901    1.000
    N1850    N        0.39112    0.27565    0.40642    1.000
    N1851    N        0.45272    0.28350    0.44316    1.000
    Si1852   Si       0.47255    0.26083    0.40992    1.000
    N1853    N        0.39468    0.25195    0.47167    1.000
    Si1854   Si       0.40877    0.28314    0.44584    1.000
    N1855    N        0.45631    0.28828    0.37820    1.000
    Si1856   Si       0.26016    0.27019    0.53770    1.000
    Si1857   Si       0.31994    0.28123    0.55353    1.000
    N1858    N        0.35712    0.27324    0.53389    1.000
    N1859    N        0.29326    0.24627    0.55569    1.000
    N1860    N        0.25700    0.25511    0.49434    1.000
    Si1861   Si       0.47588    0.27039    0.52680    1.000
    N1862    N        0.43258    0.27515    0.53369    1.000
    N1863    N        0.45287    0.28836    0.60651    1.000
    Si1864   Si       0.39548    0.26008    0.55034    1.000
    N1865    N        0.39643    0.29422    0.58154    1.000
    Si1866   Si       0.41496    0.26555    0.61216    1.000
    N1867    N        0.32219    0.27677    0.66082    1.000
    N1868    N        0.25652    0.29536    0.70258    1.000
    Si1869   Si       0.26751    0.27263    0.74034    1.000
    N1870    N        0.31202    0.27313    0.73577    1.000
    Si1871   Si       0.29377    0.30563    0.67994    1.000
    N1872    N        0.46762    0.27878    0.67774    1.000
    N1873    N        0.37339    0.29350    0.70812    1.000
    N1874    N        0.43550    0.27672    0.73330    1.000
    Si1875   Si       0.46721    0.30064    0.71492    1.000
    Si1876   Si       0.36509    0.29123    0.66431    1.000
    N1877    N        0.39000    0.26124    0.64731    1.000
    Si1878   Si       0.39403    0.26110    0.73102    1.000
    N1879    N        0.25805    0.27019    0.84708    1.000
    Si1880   Si       0.25024    0.26025    0.80515    1.000
    Si1881   Si       0.32535    0.24420    0.76658    1.000
    N1882    N        0.35599    0.30093    0.83028    1.000
    N1883    N        0.28735    0.24642    0.78822    1.000
    N1884    N        0.24482    0.29146    0.77310    1.000
    N1885    N        0.36747    0.26510    0.76895    1.000
    Si1886   Si       0.37570    0.27158    0.85982    1.000
    N1887    N        0.40020    0.25252    0.83061    1.000
    N1888    N        0.48009    0.25845    0.78380    1.000
    Si1889   Si       0.37369    0.30500    0.79077    1.000
    Si1890   Si       0.32022    0.25238    0.91611    1.000
    N1891    N        0.25689    0.25328    0.97909    1.000
    N1892    N        0.32361    0.29310    0.93377    1.000
    Si1893   Si       0.35066    0.29469    0.96453    1.000
    N1894    N        0.33966    0.24989    0.87655    1.000
    Si1895   Si       0.24282    0.24609    0.93807    1.000
    N1896    N        0.27665    0.24632    0.91015    1.000
    Si1897   Si       0.41088    0.25092    0.97918    1.000
    N1898    N        0.38986    0.30284    0.88789    1.000
    N1899    N        0.45126    0.29200    0.93165    1.000
    Si1900   Si       0.41150    0.27997    0.91820    1.000
    N1901    N        0.38765    0.27643    0.95484    1.000
    Si1902   Si       0.48711    0.28508    0.90444    1.000
    N1903    N        0.31999    0.32597    0.05416    1.000
    N1904    N        0.25330    0.31702    0.08200    1.000
    Si1905   Si       0.26018    0.35100    0.10829    1.000
    Si1906   Si       0.25417    0.34919    0.00303    1.000
    Si1907   Si       0.34713    0.30469    0.02766    1.000
    N1908    N        0.27841    0.31486    0.99650    1.000
    N1909    N        0.47481    0.34788    0.11085    1.000
    N1910    N        0.38690    0.32961    0.10936    1.000
    Si1911   Si       0.40420    0.32132    0.06988    1.000
    Si1912   Si       0.47691    0.33001    0.07100    1.000
    N1913    N        0.40056    0.35758    0.04601    1.000
    N1914    N        0.46919    0.36213    0.04199    1.000
    N1915    N        0.26224    0.34375    0.14952    1.000
    N1916    N        0.33726    0.35584    0.15703    1.000
    N1917    N        0.34662    0.35043    0.23179    1.000
    N1918    N        0.29108    0.31937    0.20610    1.000
    Si1919   Si       0.25950    0.31165    0.17862    1.000
    Si1920   Si       0.31853    0.35058    0.19712    1.000
    Si1921   Si       0.48768    0.31693    0.13945    1.000
    Si1922   Si       0.37860    0.34260    0.14928    1.000
    N1923    N        0.31045    0.30888    0.34236    1.000
    Si1924   Si       0.34467    0.30807    0.31343    1.000
    N1925    N        0.35921    0.34518    0.29501    1.000
    N1926    N        0.24414    0.32090    0.34404    1.000
    Si1927   Si       0.47826    0.31280    0.30709    1.000
    N1928    N        0.45845    0.33184    0.27162    1.000
    N1929    N        0.47975    0.34288    0.33663    1.000
    Si1930   Si       0.38029    0.33817    0.25620    1.000
    Si1931   Si       0.31907    0.33894    0.37064    1.000
    N1932    N        0.27034    0.32241    0.46895    1.000
    Si1933   Si       0.35067    0.32338    0.44133    1.000
    N1934    N        0.34984    0.32661    0.39687    1.000
    N1935    N        0.28245    0.34811    0.39364    1.000
    N1936    N        0.45364    0.33707    0.48811    1.000
    N1937    N        0.39284    0.32313    0.45431    1.000
    Si1938   Si       0.47844    0.30913    0.46590    1.000
    Si1939   Si       0.45934    0.33185    0.37611    1.000
    Si1940   Si       0.41794    0.35573    0.47244    1.000
    Si1941   Si       0.38710    0.31072    0.38048    1.000
    N1942    N        0.41565    0.34299    0.38184    1.000
    Si1943   Si       0.29040    0.32236    0.60504    1.000
    Si1944   Si       0.28021    0.33929    0.50779    1.000
    N1945    N        0.24370    0.34553    0.52965    1.000
    Si1946   Si       0.24043    0.34136    0.57241    1.000
    N1947    N        0.27781    0.36149    0.58958    1.000
    N1948    N        0.25941    0.29958    0.58443    1.000
    N1949    N        0.29203    0.30021    0.52313    1.000
    N1950    N        0.32566    0.30295    0.59054    1.000
    Si1951   Si       0.36486    0.31932    0.59664    1.000
    N1952    N        0.36711    0.35620    0.57385    1.000
    N1953    N        0.48082    0.30925    0.55012    1.000
    N1954    N        0.43107    0.34763    0.55119    1.000
    Si1955   Si       0.46863    0.34661    0.52784    1.000
    Si1956   Si       0.43717    0.30709    0.56671    1.000
    N1957    N        0.28001    0.33090    0.64660    1.000
    N1958    N        0.31855    0.33158    0.70389    1.000
    Si1959   Si       0.24689    0.35516    0.65844    1.000
    Si1960   Si       0.33922    0.30572    0.73166    1.000
    N1961    N        0.37469    0.32673    0.63934    1.000
    Si1962   Si       0.46375    0.30639    0.64539    1.000
    Si1963   Si       0.40555    0.35519    0.64756    1.000
    N1964    N        0.44672    0.34450    0.64175    1.000
    N1965    N        0.46349    0.34360    0.71092    1.000
    Si1966   Si       0.32918    0.33279    0.84095    1.000
    N1967    N        0.34257    0.32931    0.76766    1.000
    N1968    N        0.29811    0.35362    0.81636    1.000
    Si1969   Si       0.26144    0.30696    0.87096    1.000
    N1970    N        0.36040    0.36099    0.85969    1.000
    N1971    N        0.23775    0.36205    0.78409    1.000
    N1972    N        0.43427    0.34043    0.85133    1.000
    N1973    N        0.41071    0.32142    0.78411    1.000
    N1974    N        0.47629    0.32970    0.80607    1.000
    Si1975   Si       0.43482    0.34812    0.80703    1.000
    Si1976   Si       0.47726    0.33264    0.84865    1.000
    N1977    N        0.30291    0.31790    0.87078    1.000
    N1978    N        0.25881    0.32735    0.90998    1.000
    Si1979   Si       0.30119    0.32679    0.91542    1.000
    N1980    N        0.35912    0.32766    0.99366    1.000
    N1981    N        0.32327    0.36373    0.91766    1.000
    N1982    N        0.44621    0.34662    0.98034    1.000
    Si1983   Si       0.39731    0.34255    0.87419    1.000
    Si1984   Si       0.45930    0.30556    0.97452    1.000
    N1985    N        0.27475    0.37806    0.02923    1.000
    N1986    N        0.34101    0.38808    0.02577    1.000
    N1987    N        0.29736    0.37147    0.09488    1.000
    Si1988   Si       0.30979    0.36733    0.05357    1.000
    N1989    N        0.35872    0.40652    0.11252    1.000
    N1990    N        0.42811    0.40621    0.01231    1.000
    N1991    N        0.43390    0.40152    0.09065    1.000
    Si1992   Si       0.43180    0.38562    0.04990    1.000
    Si1993   Si       0.37644    0.36528    0.00844    1.000
    Si1994   Si       0.46452    0.39081    0.11891    1.000
    Si1995   Si       0.32283    0.38559    0.12720    1.000
    N1996    N        0.30147    0.38936    0.21030    1.000
    Si1997   Si       0.33104    0.39067    0.24212    1.000
    N1998    N        0.36333    0.41561    0.22387    1.000
    N1999    N        0.30013    0.41911    0.14399    1.000
    Si2000   Si       0.28700    0.41975    0.18464    1.000
    N2001    N        0.47178    0.39791    0.23462    1.000
    N2002    N        0.48052    0.39513    0.16039    1.000
    Si2003   Si       0.39944    0.39471    0.21023    1.000
    N2004    N        0.39918    0.37072    0.17477    1.000
    Si2005   Si       0.46709    0.41884    0.19585    1.000
    N2006    N        0.40782    0.36934    0.24446    1.000
    Si2007   Si       0.34723    0.38278    0.31294    1.000
    N2008    N        0.31960    0.39791    0.28264    1.000
    N2009    N        0.32447    0.37839    0.35033    1.000
    Si2010   Si       0.27800    0.40638    0.29999    1.000
    N2011    N        0.24602    0.37468    0.29919    1.000
    Si2012   Si       0.31165    0.41685    0.36491    1.000
    Si2013   Si       0.44860    0.37321    0.26032    1.000
    N2014    N        0.44824    0.39208    0.30073    1.000
    N2015    N        0.37700    0.41459    0.32197    1.000
    N2016    N        0.43491    0.40718    0.36614    1.000
    Si2017   Si       0.42111    0.41682    0.32414    1.000
    Si2018   Si       0.48635    0.38050    0.31751    1.000
    N2019    N        0.25657    0.38188    0.44664    1.000
    Si2020   Si       0.34394    0.38222    0.48719    1.000
    Si2021   Si       0.29461    0.37543    0.42548    1.000
    N2022    N        0.30476    0.41691    0.41021    1.000
    N2023    N        0.32992    0.36102    0.44813    1.000
    N2024    N        0.48146    0.36116    0.40203    1.000
    Si2025   Si       0.46184    0.41329    0.45059    1.000
    N2026    N        0.42974    0.38587    0.44050    1.000
    Si2027   Si       0.47523    0.40155    0.38103    1.000
    N2028    N        0.37941    0.41212    0.40385    1.000
    Si2029   Si       0.41344    0.38458    0.39980    1.000
    Si2030   Si       0.29211    0.40094    0.59516    1.000
    N2031    N        0.33373    0.40653    0.60816    1.000
    N2032    N        0.31114    0.36960    0.51048    1.000
    Si2033   Si       0.37105    0.39693    0.59200    1.000
    N2034    N        0.47488    0.40070    0.59665    1.000
    N2035    N        0.39121    0.41135    0.55647    1.000
    Si2036   Si       0.39456    0.36848    0.54156    1.000
    N2037    N        0.38610    0.37113    0.49934    1.000
    N2038    N        0.33532    0.39675    0.68429    1.000
    N2039    N        0.26787    0.37701    0.68901    1.000
    Si2040   Si       0.30718    0.37233    0.70693    1.000
    Si2041   Si       0.25622    0.41640    0.67027    1.000
    N2042    N        0.40128    0.39319    0.62487    1.000
    Si2043   Si       0.37603    0.40154    0.70111    1.000
    N2044    N        0.44645    0.40643    0.73203    1.000
    N2045    N        0.45678    0.40678    0.66503    1.000
    Si2046   Si       0.44261    0.38013    0.70029    1.000
    Si2047   Si       0.47251    0.38001    0.63465    1.000
    N2048    N        0.38128    0.40263    0.74389    1.000
    N2049    N        0.40274    0.36927    0.68809    1.000
    N2050    N        0.34148    0.40213    0.79673    1.000
    Si2051   Si       0.25808    0.39429    0.76454    1.000
    N2052    N        0.30960    0.41071    0.86309    1.000
    N2053    N        0.27078    0.41337    0.80311    1.000
    Si2054   Si       0.25454    0.36769    0.82475    1.000
    Si2055   Si       0.32256    0.36361    0.78089    1.000
    N2056    N        0.29693    0.38034    0.74821    1.000
    Si2057   Si       0.41877    0.41630    0.76639    1.000
    N2058    N        0.43249    0.38908    0.79858    1.000
    Si2059   Si       0.46634    0.41563    0.80624    1.000
    Si2060   Si       0.34130    0.38861    0.94831    1.000
    Si2061   Si       0.33874    0.38744    0.88438    1.000
    Si2062   Si       0.26672    0.40824    0.95336    1.000
    N2063    N        0.30854    0.41171    0.96520    1.000
    N2064    N        0.25310    0.36804    0.96328    1.000
    N2065    N        0.36234    0.41115    0.91254    1.000
    N2066    N        0.25650    0.41578    0.91194    1.000
    Si2067   Si       0.40072    0.39801    0.92969    1.000
    Si2068   Si       0.45008    0.38912    0.97841    1.000
    N2069    N        0.37796    0.38874    0.97171    1.000
    N2070    N        0.43219    0.41958    0.94915    1.000
    N2071    N        0.41148    0.36349    0.90923    1.000
    N2072    N        0.29860    0.44624    0.02488    1.000
    N2073    N        0.25506    0.45980    0.10437    1.000
    N2074    N        0.32709    0.46958    0.10848    1.000
    Si2075   Si       0.32992    0.42411    0.00326    1.000
    Si2076   Si       0.24164    0.46915    0.06192    1.000
    Si2077   Si       0.26301    0.41924    0.02128    1.000
    N2078    N        0.44972    0.46025    0.06280    1.000
    Si2079   Si       0.42957    0.44462    0.09849    1.000
    N2080    N        0.39322    0.46820    0.10056    1.000
    Si2081   Si       0.36174    0.44741    0.12435    1.000
    Si2082   Si       0.29074    0.45835    0.12938    1.000
    N2083    N        0.31240    0.45338    0.19960    1.000
    Si2084   Si       0.35552    0.45434    0.20575    1.000
    N2085    N        0.24603    0.42322    0.18774    1.000
    N2086    N        0.25159    0.48085    0.22261    1.000
    N2087    N        0.48514    0.46018    0.19372    1.000
    N2088    N        0.42573    0.42812    0.19966    1.000
    N2089    N        0.37354    0.45530    0.16646    1.000
    Si2090   Si       0.41758    0.46068    0.17134    1.000
    N2091    N        0.44827    0.45443    0.13896    1.000
    N2092    N        0.33314    0.45253    0.35633    1.000
    N2093    N        0.25466    0.43135    0.27387    1.000
    Si2094   Si       0.25640    0.47360    0.26673    1.000
    N2095    N        0.27554    0.42288    0.34060    1.000
    Si2096   Si       0.24454    0.45090    0.35791    1.000
    Si2097   Si       0.36905    0.45754    0.33299    1.000
    N2098    N        0.47211    0.47296    0.35976    1.000
    N2099    N        0.41916    0.45859    0.30530    1.000
    N2100    N        0.39742    0.46987    0.36362    1.000
    Si2101   Si       0.43342    0.47916    0.34101    1.000
    Si2102   Si       0.27135    0.44414    0.41758    1.000
    N2103    N        0.26376    0.44679    0.45946    1.000
    N2104    N        0.35704    0.46750    0.42535    1.000
    Si2105   Si       0.34438    0.42671    0.42968    1.000
    Si2106   Si       0.35068    0.45979    0.49290    1.000
    N2107    N        0.34158    0.42302    0.47280    1.000
    N2108    N        0.47670    0.42891    0.41203    1.000
    N2109    N        0.42767    0.46795    0.42270    1.000
    Si2110   Si       0.42293    0.47497    0.46841    1.000
    N2111    N        0.45518    0.44895    0.47574    1.000
    Si2112   Si       0.39153    0.45474    0.40247    1.000
    Si2113   Si       0.46751    0.46817    0.40309    1.000
    N2114    N        0.33461    0.46608    0.53261    1.000
    Si2115   Si       0.29404    0.45982    0.54878    1.000
    Si2116   Si       0.27959    0.46773    0.61653    1.000
    N2117    N        0.27341    0.42502    0.56453    1.000
    Si2118   Si       0.46134    0.43949    0.58526    1.000
    Si2119   Si       0.40201    0.45188    0.54453    1.000
    N2120    N        0.44706    0.44802    0.54506    1.000
    Si2121   Si       0.47120    0.46159    0.51352    1.000
    N2122    N        0.43272    0.45242    0.61574    1.000
    N2123    N        0.39360    0.46186    0.50024    1.000
    N2124    N        0.32991    0.46182    0.66543    1.000
    Si2125   Si       0.24262    0.45758    0.73670    1.000
    N2126    N        0.26322    0.44910    0.69824    1.000
    N2127    N        0.28121    0.42651    0.63566    1.000
    N2128    N        0.32812    0.45199    0.74594    1.000
    Si2129   Si       0.32440    0.42176    0.64854    1.000
    Si2130   Si       0.37011    0.47197    0.67294    1.000
    Si2131   Si       0.42142    0.42628    0.64671    1.000
    Si2132   Si       0.48852    0.43405    0.67722    1.000
    N2133    N        0.47055    0.46934    0.69241    1.000
    N2134    N        0.39234    0.43621    0.67915    1.000
    Si2135   Si       0.48385    0.43069    0.74649    1.000
    N2136    N        0.26086    0.45994    0.85585    1.000
    Si2137   Si       0.25650    0.45425    0.81063    1.000
    N2138    N        0.31519    0.46358    0.81297    1.000
    Si2139   Si       0.35655    0.43074    0.76734    1.000
    N2140    N        0.26536    0.47091    0.77065    1.000
    Si2141   Si       0.31112    0.42118    0.82053    1.000
    N2142    N        0.36449    0.47076    0.86333    1.000
    N2143    N        0.47138    0.42781    0.84780    1.000
    N2144    N        0.39225    0.45069    0.78150    1.000
    N2145    N        0.45398    0.44670    0.77888    1.000
    Si2146   Si       0.46114    0.46929    0.85881    1.000
    Si2147   Si       0.42638    0.47830    0.78799    1.000
    N2148    N        0.31346    0.46133    0.90621    1.000
    Si2149   Si       0.28403    0.43750    0.88555    1.000
    N2150    N        0.24578    0.43137    0.98407    1.000
    Si2151   Si       0.35501    0.45297    0.90220    1.000
    N2152    N        0.38262    0.47668    0.92925    1.000
    Si2153   Si       0.46194    0.44570    0.93052    1.000
    N2154    N        0.36357    0.45022    0.99367    1.000
    N2155    N        0.48577    0.46845    0.95960    1.000
    N2156    N        0.42157    0.47389    0.98902    1.000
    Si2157   Si       0.40480    0.43118    0.98471    1.000
    N2158    N        0.44142    0.46808    0.89887    1.000
    N2159    N        0.33306    0.50201    0.04283    1.000
    Si2160   Si       0.32910    0.50458    0.08598    1.000
    N2161    N        0.26391    0.49939    0.03985    1.000
    Si2162   Si       0.29782    0.48925    0.01727    1.000
    N2163    N        0.29286    0.52830    0.09352    1.000
    N2164    N        0.36186    0.53099    0.09824    1.000
    Si2165   Si       0.36656    0.52688    0.02912    1.000
    N2166    N        0.40355    0.51080    0.04574    1.000
    N2167    N        0.46527    0.51291    0.01684    1.000
    Si2168   Si       0.39957    0.50902    0.09021    1.000
    Si2169   Si       0.47647    0.51456    0.10813    1.000
    N2170    N        0.43410    0.52508    0.11163    1.000
    Si2171   Si       0.43394    0.48454    0.03025    1.000
    N2172    N        0.31216    0.52218    0.21113    1.000
    N2173    N        0.28570    0.49111    0.15719    1.000
    Si2174   Si       0.27790    0.52768    0.13370    1.000
    Si2175   Si       0.34968    0.52717    0.22993    1.000
    Si2176   Si       0.28688    0.48924    0.19993    1.000
    N2177    N        0.24677    0.53746    0.19596    1.000
    N2178    N        0.48525    0.51151    0.15244    1.000
    N2179    N        0.42974    0.49513    0.19364    1.000
    Si2180   Si       0.42129    0.52524    0.22216    1.000
    Si2181   Si       0.47614    0.50780    0.19552    1.000
    N2182    N        0.36660    0.48412    0.23630    1.000
    Si2183   Si       0.26706    0.51444    0.31930    1.000
    N2184    N        0.28982    0.49302    0.28680    1.000
    Si2185   Si       0.32549    0.51662    0.29903    1.000
    N2186    N        0.36047    0.48870    0.30324    1.000
    N2187    N        0.30483    0.53111    0.33441    1.000
    N2188    N        0.43904    0.52147    0.33100    1.000
    Si2189   Si       0.45490    0.52197    0.28985    1.000
    N2190    N        0.42374    0.50789    0.26228    1.000
    Si2191   Si       0.39232    0.48309    0.27498    1.000
    N2192    N        0.49008    0.49452    0.28884    1.000
    Si2193   Si       0.25270    0.48393    0.48138    1.000
    N2194    N        0.24650    0.51233    0.44856    1.000
    Si2195   Si       0.26891    0.51848    0.41079    1.000
    Si2196   Si       0.34835    0.50877    0.43863    1.000
    N2197    N        0.33606    0.49921    0.47835    1.000
    N2198    N        0.31201    0.52673    0.42014    1.000
    N2199    N        0.26699    0.47890    0.39057    1.000
    Si2200   Si       0.45592    0.53526    0.49287    1.000
    N2201    N        0.42153    0.51790    0.46810    1.000
    N2202    N        0.33181    0.52943    0.54828    1.000
    Si2203   Si       0.31066    0.51342    0.51141    1.000
    Si2204   Si       0.34437    0.49300    0.56625    1.000
    N2205    N        0.27649    0.48537    0.51812    1.000
    N2206    N        0.24228    0.48139    0.59927    1.000
    N2207    N        0.30984    0.47465    0.58890    1.000
    Si2208   Si       0.47400    0.50610    0.56428    1.000
    Si2209   Si       0.41108    0.48962    0.60582    1.000
    N2210    N        0.47412    0.50415    0.52119    1.000
    N2211    N        0.44091    0.51695    0.58934    1.000
    N2212    N        0.38636    0.48065    0.57390    1.000
    Si2213   Si       0.24659    0.51849    0.62394    1.000
    Si2214   Si       0.33449    0.52611    0.72090    1.000
    N2215    N        0.27729    0.49718    0.64883    1.000
    N2216    N        0.29657    0.51569    0.70329    1.000
    N2217    N        0.36562    0.50346    0.70339    1.000
    Si2218   Si       0.29305    0.47646    0.68404    1.000
    Si2219   Si       0.37921    0.53354    0.66681    1.000
    N2220    N        0.39087    0.49778    0.64412    1.000
    N2221    N        0.30845    0.51493    0.85942    1.000
    Si2222   Si       0.33767    0.49317    0.83689    1.000
    N2223    N        0.32779    0.51831    0.76309    1.000
    N2224    N        0.24517    0.52980    0.84388    1.000
    Si2225   Si       0.30760    0.47949    0.77305    1.000
    Si2226   Si       0.24298    0.49572    0.87195    1.000
    N2227    N        0.36189    0.52342    0.81885    1.000
    N2228    N        0.43301    0.48853    0.83160    1.000
    Si2229   Si       0.40100    0.51885    0.83955    1.000
    N2230    N        0.43043    0.50387    0.75434    1.000
    Si2231   Si       0.25715    0.51931    0.95075    1.000
    N2232    N        0.29263    0.51038    0.97760    1.000
    Si2233   Si       0.30651    0.50271    0.89952    1.000
    N2234    N        0.26334    0.50559    0.90902    1.000
    N2235    N        0.33098    0.53082    0.92279    1.000
    N2236    N        0.36305    0.52077    0.98517    1.000
    Si2237   Si       0.41469    0.49780    0.91207    1.000
    N2238    N        0.43489    0.52122    0.94234    1.000
    N2239    N        0.39546    0.52723    0.88587    1.000
    Si2240   Si       0.38278    0.48536    0.97288    1.000
    Si2241   Si       0.46198    0.50414    0.97318    1.000
    N2242    N        0.29897    0.56442    0.03422    1.000
    Si2243   Si       0.33395    0.58753    0.04921    1.000
    N2244    N        0.33090    0.59409    0.09204    1.000
    Si2245   Si       0.29443    0.59355    0.00290    1.000
    Si2246   Si       0.35985    0.57120    0.11463    1.000
    Si2247   Si       0.27233    0.53891    0.05645    1.000
    Si2248   Si       0.48086    0.55065    0.03182    1.000
    N2249    N        0.37119    0.57155    0.03427    1.000
    N2250    N        0.40113    0.58936    0.10718    1.000
    N2251    N        0.44964    0.58060    0.02528    1.000
    Si2252   Si       0.40766    0.59478    0.02698    1.000
    Si2253   Si       0.28533    0.55857    0.19843    1.000
    N2254    N        0.29381    0.56402    0.15522    1.000
    N2255    N        0.31644    0.58562    0.21572    1.000
    N2256    N        0.36039    0.57382    0.15737    1.000
    N2257    N        0.38401    0.54650    0.21578    1.000
    Si2258   Si       0.39051    0.57946    0.18752    1.000
    N2259    N        0.45966    0.54479    0.21632    1.000
    N2260    N        0.46919    0.58828    0.12311    1.000
    Si2261   Si       0.43246    0.56688    0.12700    1.000
    Si2262   Si       0.47895    0.57302    0.24187    1.000
    N2263    N        0.42910    0.57976    0.16761    1.000
    N2264    N        0.25364    0.55159    0.30376    1.000
    Si2265   Si       0.29232    0.56638    0.35855    1.000
    Si2266   Si       0.32509    0.58961    0.25858    1.000
    N2267    N        0.33584    0.54579    0.26906    1.000
    Si2268   Si       0.25947    0.59508    0.30469    1.000
    Si2269   Si       0.47696    0.59025    0.31422    1.000
    N2270    N        0.44579    0.58775    0.34313    1.000
    N2271    N        0.38253    0.55883    0.35199    1.000
    N2272    N        0.46561    0.56466    0.28198    1.000
    Si2273   Si       0.42575    0.55333    0.35943    1.000
    Si2274   Si       0.33377    0.56659    0.42000    1.000
    N2275    N        0.32805    0.58019    0.38021    1.000
    N2276    N        0.25969    0.55436    0.38564    1.000
    Si2277   Si       0.30022    0.58953    0.48672    1.000
    N2278    N        0.29095    0.54795    0.49729    1.000
    N2279    N        0.47634    0.55584    0.45714    1.000
    N2280    N        0.43734    0.54699    0.40137    1.000
    Si2281   Si       0.41180    0.55153    0.43912    1.000
    Si2282   Si       0.47670    0.54196    0.41649    1.000
    N2283    N        0.37026    0.54546    0.43067    1.000
    N2284    N        0.41376    0.59264    0.45087    1.000
    Si2285   Si       0.33415    0.57204    0.54731    1.000
    N2286    N        0.29230    0.59040    0.56261    1.000
    Si2287   Si       0.29191    0.58988    0.60478    1.000
    N2288    N        0.33306    0.59506    0.61968    1.000
    N2289    N        0.37667    0.58414    0.56426    1.000
    N2290    N        0.43572    0.55984    0.52204    1.000
    Si2291   Si       0.46464    0.54844    0.60903    1.000
    Si2292   Si       0.41515    0.59215    0.54070    1.000
    Si2293   Si       0.37468    0.59417    0.60760    1.000
    N2294    N        0.45140    0.58932    0.62075    1.000
    N2295    N        0.27288    0.55368    0.62400    1.000
    N2296    N        0.29285    0.58218    0.67666    1.000
    N2297    N        0.34036    0.56973    0.71999    1.000
    Si2298   Si       0.33562    0.58663    0.66222    1.000
    N2299    N        0.26627    0.57795    0.74026    1.000
    N2300    N        0.33735    0.54275    0.65847    1.000
    Si2301   Si       0.29997    0.59147    0.72039    1.000
    Si2302   Si       0.29407    0.53771    0.66213    1.000
    N2303    N        0.46183    0.53930    0.65240    1.000
    Si2304   Si       0.43169    0.53834    0.72714    1.000
    N2305    N        0.41029    0.55146    0.69351    1.000
    Si2306   Si       0.43133    0.57515    0.66078    1.000
    N2307    N        0.39337    0.56740    0.63663    1.000
    N2308    N        0.47422    0.54120    0.72141    1.000
    Si2309   Si       0.37621    0.58203    0.74100    1.000
    N2310    N        0.29500    0.56427    0.80716    1.000
    Si2311   Si       0.26134    0.58257    0.78488    1.000
    Si2312   Si       0.28448    0.54897    0.84829    1.000
    Si2313   Si       0.33583    0.54940    0.79587    1.000
    N2314    N        0.35571    0.58564    0.78335    1.000
    N2315    N        0.34640    0.57721    0.86826    1.000
    N2316    N        0.42492    0.55308    0.82702    1.000
    Si2317   Si       0.43022    0.58099    0.79374    1.000
    Si2318   Si       0.44949    0.57184    0.85891    1.000
    N2319    N        0.47188    0.58369    0.78336    1.000
    N2320    N        0.41459    0.56901    0.75504    1.000
    N2321    N        0.28029    0.57925    0.88027    1.000
    N2322    N        0.32248    0.58180    0.97224    1.000
    N2323    N        0.25490    0.56275    0.94483    1.000
    Si2324   Si       0.24880    0.58806    0.90738    1.000
    Si2325   Si       0.36248    0.55247    0.90216    1.000
    Si2326   Si       0.32815    0.53770    0.96502    1.000
    N2327    N        0.44746    0.59093    0.93899    1.000
    N2328    N        0.37598    0.58278    0.93060    1.000
    Si2329   Si       0.46344    0.55170    0.92933    1.000
    N2330    N        0.47011    0.54627    0.88677    1.000
    N2331    N        0.32085    0.62114    0.02511    1.000
    Si2332   Si       0.32436    0.63359    0.10923    1.000
    N2333    N        0.25813    0.61436    0.99682    1.000
    Si2334   Si       0.25259    0.65826    0.00840    1.000
    N2335    N        0.36536    0.64958    0.10611    1.000
    N2336    N        0.44151    0.65211    0.10365    1.000
    Si2337   Si       0.40270    0.63192    0.09525    1.000
    N2338    N        0.40521    0.63010    0.05253    1.000
    Si2339   Si       0.47597    0.64371    0.07979    1.000
    Si2340   Si       0.47897    0.61703    0.02573    1.000
    N2341    N        0.24297    0.60117    0.12125    1.000
    N2342    N        0.29317    0.65183    0.22533    1.000
    Si2343   Si       0.33380    0.60069    0.17847    1.000
    N2344    N        0.31101    0.62684    0.15171    1.000
    Si2345   Si       0.26467    0.61926    0.23241    1.000
    N2346    N        0.25843    0.60082    0.19302    1.000
    Si2347   Si       0.27133    0.60213    0.15265    1.000
    Si2348   Si       0.46558    0.60688    0.16189    1.000
    Si2349   Si       0.45067    0.64924    0.21756    1.000
    N2350    N        0.37075    0.61795    0.19795    1.000
    Si2351   Si       0.37385    0.64235    0.23318    1.000
    N2352    N        0.44732    0.64383    0.17315    1.000
    N2353    N        0.47332    0.61555    0.23196    1.000
    N2354    N        0.41544    0.65154    0.24441    1.000
    Si2355   Si       0.31094    0.64080    0.34161    1.000
    N2356    N        0.34642    0.62626    0.26428    1.000
    N2357    N        0.35493    0.63258    0.33999    1.000
    N2358    N        0.28553    0.60398    0.33752    1.000
    N2359    N        0.28328    0.59973    0.26735    1.000
    Si2360   Si       0.43238    0.62475    0.36158    1.000
    N2361    N        0.48262    0.63270    0.31072    1.000
    Si2362   Si       0.36536    0.59741    0.36311    1.000
    N2363    N        0.42160    0.65604    0.33471    1.000
    N2364    N        0.24965    0.64472    0.43280    1.000
    Si2365   Si       0.24090    0.64051    0.47534    1.000
    N2366    N        0.36854    0.65046    0.42820    1.000
    N2367    N        0.31455    0.59121    0.44748    1.000
    N2368    N        0.39955    0.61324    0.38585    1.000
    N2369    N        0.46631    0.63670    0.38520    1.000
    N2370    N        0.43348    0.65187    0.45163    1.000
    Si2371   Si       0.43246    0.62037    0.48040    1.000
    N2372    N        0.47254    0.61681    0.49429    1.000
    Si2373   Si       0.40293    0.62825    0.42676    1.000
    Si2374   Si       0.25879    0.61227    0.54456    1.000
    N2375    N        0.33485    0.60185    0.51340    1.000
    N2376    N        0.26642    0.61458    0.50204    1.000
    N2377    N        0.26456    0.62290    0.61971    1.000
    Si2378   Si       0.36188    0.63350    0.51765    1.000
    Si2379   Si       0.43913    0.62625    0.60069    1.000
    N2380    N        0.44782    0.61475    0.55994    1.000
    N2381    N        0.40307    0.62089    0.51261    1.000
    N2382    N        0.39704    0.63259    0.61394    1.000
    Si2383   Si       0.48049    0.63142    0.53613    1.000
    Si2384   Si       0.25869    0.60524    0.65862    1.000
    N2385    N        0.35436    0.62217    0.67786    1.000
    N2386    N        0.25168    0.63836    0.68646    1.000
    N2387    N        0.30855    0.63305    0.72533    1.000
    Si2388   Si       0.34923    0.64545    0.71532    1.000
    N2389    N        0.44058    0.60866    0.68698    1.000
    Si2390   Si       0.37961    0.64807    0.65396    1.000
    Si2391   Si       0.41862    0.63462    0.71449    1.000
    N2392    N        0.38063    0.62408    0.73862    1.000
    N2393    N        0.44548    0.65088    0.74400    1.000
    Si2394   Si       0.48315    0.61891    0.69249    1.000
    N2395    N        0.30855    0.63871    0.84559    1.000
    N2396    N        0.25512    0.62373    0.79538    1.000
    Si2397   Si       0.27270    0.65114    0.82641    1.000
    N2398    N        0.41103    0.61647    0.80602    1.000
    Si2399   Si       0.41334    0.63084    0.84822    1.000
    Si2400   Si       0.37512    0.62419    0.78351    1.000
    Si2401   Si       0.47510    0.62786    0.76655    1.000
    N2402    N        0.47877    0.60098    0.84558    1.000
    Si2403   Si       0.48826    0.64771    0.84300    1.000
    N2404    N        0.37737    0.65129    0.86028    1.000
    N2405    N        0.49087    0.65157    0.79915    1.000
    Si2406   Si       0.31595    0.60552    0.87372    1.000
    Si2407   Si       0.34720    0.60989    0.94977    1.000
    N2408    N        0.32169    0.62338    0.91260    1.000
    N2409    N        0.34076    0.64933    0.96568    1.000
    N2410    N        0.24080    0.62468    0.93150    1.000
    Si2411   Si       0.41997    0.65310    0.96355    1.000
    N2412    N        0.42019    0.59920    0.87566    1.000
    N2413    N        0.40310    0.62301    0.99047    1.000
    Si2414   Si       0.41234    0.60291    0.91845    1.000
    N2415    N        0.40067    0.64415    0.92639    1.000
    Si2416   Si       0.48172    0.61726    0.95144    1.000
    Si2417   Si       0.25246    0.67622    0.08452    1.000
    N2418    N        0.28995    0.68169    0.00767    1.000
    N2419    N        0.35877    0.67787    0.03081    1.000
    N2420    N        0.28770    0.65790    0.10316    1.000
    Si2421   Si       0.32738    0.66026    0.00761    1.000
    N2422    N        0.25938    0.71653    0.06998    1.000
    N2423    N        0.47272    0.65875    0.03634    1.000
    Si2424   Si       0.39650    0.65908    0.02187    1.000
    Si2425   Si       0.29596    0.66894    0.14671    1.000
    N2426    N        0.26527    0.68481    0.17222    1.000
    N2427    N        0.32958    0.69479    0.14588    1.000
    Si2428   Si       0.27958    0.69450    0.21404    1.000
    N2429    N        0.35198    0.68013    0.23225    1.000
    Si2430   Si       0.36529    0.68961    0.12213    1.000
    N2431    N        0.46910    0.68790    0.21980    1.000
    N2432    N        0.40297    0.69690    0.14114    1.000
    Si2433   Si       0.47510    0.71582    0.18530    1.000
    Si2434   Si       0.44071    0.67243    0.14164    1.000
    N2435    N        0.47067    0.70270    0.14452    1.000
    Si2436   Si       0.29100    0.70462    0.30206    1.000
    N2437    N        0.30485    0.66326    0.30587    1.000
    N2438    N        0.29665    0.70294    0.25924    1.000
    Si2439   Si       0.31915    0.66338    0.26058    1.000
    N2440    N        0.36649    0.69307    0.36342    1.000
    N2441    N        0.37632    0.69118    0.29400    1.000
    N2442    N        0.44944    0.69345    0.28666    1.000
    Si2443   Si       0.41195    0.68692    0.26720    1.000
    Si2444   Si       0.46020    0.66999    0.32093    1.000
    Si2445   Si       0.37959    0.66783    0.33055    1.000
    Si2446   Si       0.47920    0.70613    0.25678    1.000
    Si2447   Si       0.34486    0.67389    0.39734    1.000
    Si2448   Si       0.27418    0.67234    0.40764    1.000
    N2449    N        0.33298    0.70386    0.43080    1.000
    N2450    N        0.30609    0.65880    0.38227    1.000
    N2451    N        0.24613    0.68093    0.49074    1.000
    N2452    N        0.35131    0.66909    0.49357    1.000
    N2453    N        0.26115    0.71065    0.42725    1.000
    Si2454   Si       0.36216    0.68393    0.45565    1.000
    N2455    N        0.45033    0.70122    0.40034    1.000
    N2456    N        0.39769    0.70905    0.45035    1.000
    Si2457   Si       0.48306    0.67648    0.38393    1.000
    Si2458   Si       0.43789    0.69372    0.44158    1.000
    N2459    N        0.47003    0.71476    0.46315    1.000
    Si2460   Si       0.26123    0.68968    0.53079    1.000
    Si2461   Si       0.34149    0.69095    0.52963    1.000
    N2462    N        0.26714    0.69930    0.61257    1.000
    N2463    N        0.30126    0.70407    0.52614    1.000
    Si2464   Si       0.25113    0.66155    0.59910    1.000
    N2465    N        0.26103    0.65556    0.55718    1.000
    N2466    N        0.35647    0.65682    0.55545    1.000
    Si2467   Si       0.37812    0.66829    0.59281    1.000
    N2468    N        0.40712    0.69890    0.58086    1.000
    Si2469   Si       0.44139    0.70107    0.60861    1.000
    N2470    N        0.47731    0.67418    0.53620    1.000
    N2471    N        0.45924    0.66112    0.61350    1.000
    N2472    N        0.25873    0.69471    0.72678    1.000
    N2473    N        0.34908    0.68717    0.72954    1.000
    N2474    N        0.30755    0.68687    0.68045    1.000
    Si2475   Si       0.28274    0.66151    0.70832    1.000
    Si2476   Si       0.28176    0.70967    0.65209    1.000
    N2477    N        0.36309    0.68329    0.63202    1.000
    Si2478   Si       0.33608    0.71467    0.69972    1.000
    N2479    N        0.40319    0.66462    0.68550    1.000
    Si2480   Si       0.41337    0.70733    0.68429    1.000
    N2481    N        0.28602    0.68688    0.80595    1.000
    Si2482   Si       0.26179    0.69587    0.77239    1.000
    Si2483   Si       0.34429    0.66448    0.83638    1.000
    N2484    N        0.33636    0.70678    0.84725    1.000
    N2485    N        0.35833    0.66175    0.79572    1.000
    Si2486   Si       0.36167    0.69773    0.76962    1.000
    N2487    N        0.44616    0.65721    0.85480    1.000
    Si2488   Si       0.44815    0.69969    0.86706    1.000
    N2489    N        0.40495    0.70408    0.77278    1.000
    Si2490   Si       0.44025    0.69408    0.74777    1.000
    N2491    N        0.28068    0.68104    0.93159    1.000
    Si2492   Si       0.31919    0.66138    0.92941    1.000
    N2493    N        0.34680    0.68912    0.90946    1.000
    N2494    N        0.46155    0.65713    0.95383    1.000
    N2495    N        0.47373    0.70714    0.90460    1.000
    N2496    N        0.41256    0.68609    0.99275    1.000
    N2497    N        0.40764    0.70625    0.89135    1.000
    Si2498   Si       0.38333    0.67126    0.89770    1.000
    Si2499   Si       0.47074    0.69807    0.94697    1.000
    N2500    N        0.32247    0.73632    0.03046    1.000
    Si2501   Si       0.35304    0.75909    0.10829    1.000
    N2502    N        0.25376    0.74358    0.00469    1.000
    Si2503   Si       0.29323    0.72501    0.00224    1.000
    N2504    N        0.35642    0.71886    0.09082    1.000
    Si2505   Si       0.35773    0.71893    0.04810    1.000
    N2506    N        0.47664    0.72387    0.07106    1.000
    N2507    N        0.39156    0.73878    0.02893    1.000
    Si2508   Si       0.47666    0.73350    0.11426    1.000
    Si2509   Si       0.47617    0.76426    0.05365    1.000
    N2510    N        0.32850    0.76764    0.14492    1.000
    Si2511   Si       0.32942    0.73073    0.16902    1.000
    N2512    N        0.29940    0.73148    0.20047    1.000
    Si2513   Si       0.27464    0.76525    0.21391    1.000
    Si2514   Si       0.40230    0.73657    0.15971    1.000
    N2515    N        0.44035    0.74406    0.18423    1.000
    Si2516   Si       0.36908    0.72062    0.22782    1.000
    Si2517   Si       0.43764    0.75267    0.22836    1.000
    N2518    N        0.36865    0.73363    0.18662    1.000
    N2519    N        0.45943    0.77060    0.12681    1.000
    N2520    N        0.41178    0.72125    0.24151    1.000
    N2521    N        0.39292    0.76316    0.12569    1.000
    N2522    N        0.32190    0.72622    0.32111    1.000
    N2523    N        0.25266    0.72453    0.30354    1.000
    Si2524   Si       0.35036    0.73190    0.35415    1.000
    Si2525   Si       0.25478    0.76464    0.32588    1.000
    N2526    N        0.35586    0.74987    0.25493    1.000
    N2527    N        0.24617    0.76711    0.25054    1.000
    N2528    N        0.26064    0.75588    0.36769    1.000
    Si2529   Si       0.35839    0.73030    0.29574    1.000
    N2530    N        0.38051    0.74948    0.32918    1.000
    N2531    N        0.44798    0.76081    0.35423    1.000
    N2532    N        0.47707    0.74907    0.24674    1.000
    Si2533   Si       0.32942    0.74660    0.42621    1.000
    N2534    N        0.32850    0.75413    0.38473    1.000
    N2535    N        0.25134    0.75218    0.48507    1.000
    Si2536   Si       0.23891    0.71590    0.46415    1.000
    N2537    N        0.41989    0.75891    0.48950    1.000
    N2538    N        0.36292    0.77077    0.44423    1.000
    Si2539   Si       0.46192    0.75211    0.48449    1.000
    N2540    N        0.42641    0.76724    0.42106    1.000
    Si2541   Si       0.45133    0.74427    0.39355    1.000
    Si2542   Si       0.40116    0.75152    0.45317    1.000
    N2543    N        0.30082    0.75038    0.57704    1.000
    Si2544   Si       0.31457    0.74520    0.53565    1.000
    Si2545   Si       0.26161    0.73529    0.58717    1.000
    Si2546   Si       0.32576    0.76215    0.60918    1.000
    N2547    N        0.35806    0.72896    0.54250    1.000
    N2548    N        0.24202    0.72476    0.54912    1.000
    N2549    N        0.23772    0.76372    0.60841    1.000
    N2550    N        0.36881    0.75157    0.60708    1.000
    Si2551   Si       0.38962    0.73792    0.57046    1.000
    Si2552   Si       0.46407    0.75747    0.55863    1.000
    N2553    N        0.47115    0.72810    0.59207    1.000
    N2554    N        0.42132    0.76244    0.55646    1.000
    N2555    N        0.48020    0.74324    0.52142    1.000
    N2556    N        0.31241    0.74099    0.64558    1.000
    N2557    N        0.31052    0.74666    0.71460    1.000
    Si2558   Si       0.26469    0.73982    0.72331    1.000
    N2559    N        0.24711    0.72559    0.67408    1.000
    Si2560   Si       0.30766    0.77193    0.67738    1.000
    N2561    N        0.37011    0.77175    0.74384    1.000
    N2562    N        0.42115    0.71640    0.64384    1.000
    N2563    N        0.37272    0.73141    0.68381    1.000
    Si2564   Si       0.37774    0.72484    0.63956    1.000
    Si2565   Si       0.46601    0.76549    0.69899    1.000
    Si2566   Si       0.37846    0.77521    0.69984    1.000
    N2567    N        0.44924    0.70928    0.70908    1.000
    N2568    N        0.26804    0.73820    0.76925    1.000
    N2569    N        0.28626    0.75683    0.83059    1.000
    N2570    N        0.33406    0.72808    0.78262    1.000
    Si2571   Si       0.31036    0.72203    0.81739    1.000
    Si2572   Si       0.33018    0.76118    0.75395    1.000
    Si2573   Si       0.26708    0.76004    0.87081    1.000
    Si2574   Si       0.43027    0.73331    0.79570    1.000
    N2575    N        0.43140    0.72828    0.83840    1.000
    Si2576   Si       0.40685    0.74952    0.86649    1.000
    N2577    N        0.46544    0.71465    0.77811    1.000
    Si2578   Si       0.33849    0.72541    0.88675    1.000
    N2579    N        0.30209    0.74714    0.89705    1.000
    N2580    N        0.30834    0.73701    0.96479    1.000
    Si2581   Si       0.28597    0.72466    0.92894    1.000
    N2582    N        0.24572    0.74312    0.92896    1.000
    Si2583   Si       0.34256    0.76576    0.96802    1.000
    N2584    N        0.43292    0.76258    0.89940    1.000
    N2585    N        0.43778    0.72788    0.95049    1.000
    N2586    N        0.37525    0.73861    0.95947    1.000
    Si2587   Si       0.40882    0.73136    0.98702    1.000
    Si2588   Si       0.40195    0.73851    0.92444    1.000
    Si2589   Si       0.46985    0.75177    0.91577    1.000
    N2590    N        0.37017    0.75570    0.89153    1.000
    N2591    N        0.29128    0.79991    0.02253    1.000
    N2592    N        0.34039    0.78458    0.07724    1.000
    Si2593   Si       0.25980    0.80762    0.05433    1.000
    N2594    N        0.35690    0.79147    0.00568    1.000
    Si2595   Si       0.32570    0.82460    0.08764    1.000
    Si2596   Si       0.32764    0.77888    0.03611    1.000
    N2597    N        0.28338    0.82449    0.08701    1.000
    Si2598   Si       0.27079    0.83048    0.99383    1.000
    Si2599   Si       0.42514    0.78203    0.10302    1.000
    N2600    N        0.40722    0.82354    0.03606    1.000
    N2601    N        0.42606    0.82634    0.10416    1.000
    Si2602   Si       0.40576    0.77932    0.02967    1.000
    N2603    N        0.43545    0.77484    0.06218    1.000
    Si2604   Si       0.36910    0.83190    0.02045    1.000
    N2605    N        0.24787    0.78172    0.18308    1.000
    N2606    N        0.30400    0.79050    0.23471    1.000
    Si2607   Si       0.33363    0.80647    0.16190    1.000
    Si2608   Si       0.25401    0.82388    0.17929    1.000
    Si2609   Si       0.34728    0.79151    0.23731    1.000
    N2610    N        0.35946    0.80739    0.19727    1.000
    N2611    N        0.29696    0.82614    0.17323    1.000
    N2612    N        0.48894    0.78963    0.19203    1.000
    N2613    N        0.42467    0.81213    0.16987    1.000
    Si2614   Si       0.45420    0.78273    0.16909    1.000
    N2615    N        0.42164    0.79353    0.23080    1.000
    Si2616   Si       0.40111    0.82204    0.20424    1.000
    N2617    N        0.28351    0.79364    0.31182    1.000
    Si2618   Si       0.28490    0.80735    0.27035    1.000
    N2619    N        0.30421    0.81656    0.37017    1.000
    N2620    N        0.24923    0.83070    0.26559    1.000
    Si2621   Si       0.30417    0.83045    0.32877    1.000
    N2622    N        0.37022    0.81631    0.26596    1.000
    Si2623   Si       0.41476    0.81119    0.26907    1.000
    N2624    N        0.40477    0.81562    0.34759    1.000
    N2625    N        0.43532    0.78424    0.29324    1.000
    Si2626   Si       0.41589    0.77535    0.33085    1.000
    Si2627   Si       0.47737    0.77469    0.28334    1.000
    Si2628   Si       0.28294    0.78109    0.47518    1.000
    N2629    N        0.26955    0.82125    0.48561    1.000
    Si2630   Si       0.29169    0.77983    0.38926    1.000
    N2631    N        0.29407    0.77364    0.43349    1.000
    N2632    N        0.35767    0.83173    0.40343    1.000
    N2633    N        0.34148    0.83262    0.47472    1.000
    Si2634   Si       0.36813    0.81575    0.44352    1.000
    Si2635   Si       0.44553    0.80630    0.43260    1.000
    N2636    N        0.47687    0.78527    0.45908    1.000
    N2637    N        0.40926    0.82401    0.45331    1.000
    Si2638   Si       0.33619    0.81072    0.51078    1.000
    N2639    N        0.24677    0.79231    0.54511    1.000
    N2640    N        0.32259    0.80344    0.61852    1.000
    Si2641   Si       0.26887    0.82552    0.52850    1.000
    N2642    N        0.30932    0.82769    0.54125    1.000
    N2643    N        0.25455    0.83022    0.60486    1.000
    N2644    N        0.31511    0.77406    0.50284    1.000
    N2645    N        0.48034    0.79595    0.57195    1.000
    Si2646   Si       0.41049    0.78706    0.52105    1.000
    N2647    N        0.37672    0.81246    0.52707    1.000
    N2648    N        0.44488    0.81518    0.51624    1.000
    Si2649   Si       0.46013    0.82994    0.55330    1.000
    N2650    N        0.24065    0.77502    0.72049    1.000
    N2651    N        0.27317    0.79281    0.66432    1.000
    N2652    N        0.34489    0.79424    0.68009    1.000
    Si2653   Si       0.24616    0.80972    0.69375    1.000
    Si2654   Si       0.34158    0.82608    0.65048    1.000
    Si2655   Si       0.28621    0.82308    0.63498    1.000
    N2656    N        0.27679    0.83357    0.72056    1.000
    N2657    N        0.48827    0.77487    0.73599    1.000
    N2658    N        0.39227    0.82522    0.71640    1.000
    N2659    N        0.46533    0.80701    0.68101    1.000
    Si2660   Si       0.43461    0.82854    0.70168    1.000
    N2661    N        0.42287    0.77343    0.70888    1.000
    N2662    N        0.30821    0.79438    0.77154    1.000
    Si2663   Si       0.27632    0.77553    0.79275    1.000
    N2664    N        0.24093    0.80053    0.79499    1.000
    Si2665   Si       0.42947    0.80161    0.82091    1.000
    N2666    N        0.39835    0.79041    0.84914    1.000
    N2667    N        0.47079    0.79923    0.84285    1.000
    N2668    N        0.42726    0.77546    0.78537    1.000
    Si2669   Si       0.40918    0.79113    0.74743    1.000
    N2670    N        0.26617    0.80114    0.88665    1.000
    N2671    N        0.25030    0.80357    0.96779    1.000
    N2672    N        0.33461    0.79767    0.93961    1.000
    Si2673   Si       0.30989    0.79281    0.90473    1.000
    N2674    N        0.33322    0.81767    0.87827    1.000
    N2675    N        0.48172    0.78092    0.94545    1.000
    Si2676   Si       0.37344    0.80091    0.88473    1.000
    N2677    N        0.42310    0.77469    0.99038    1.000
    Si2678   Si       0.46379    0.78798    0.98494    1.000
    Si2679   Si       0.26426    0.85762    0.10530    1.000
    N2680    N        0.34397    0.84436    0.05412    1.000
    Si2681   Si       0.35042    0.88656    0.05898    1.000
    N2682    N        0.24424    0.83974    0.02977    1.000
    N2683    N        0.24296    0.88619    0.08158    1.000
    Si2684   Si       0.47126    0.86351    0.00431    1.000
    N2685    N        0.44521    0.88289    0.07118    1.000
    Si2686   Si       0.43823    0.83946    0.06499    1.000
    N2687    N        0.47644    0.83752    0.04155    1.000
    N2688    N        0.29717    0.88196    0.12428    1.000
    N2689    N        0.24140    0.84692    0.14220    1.000
    Si2690   Si       0.30322    0.86768    0.16552    1.000
    Si2691   Si       0.36485    0.87058    0.13481    1.000
    N2692    N        0.34196    0.88590    0.17060    1.000
    N2693    N        0.34564    0.83302    0.12798    1.000
    N2694    N        0.40360    0.86436    0.21347    1.000
    N2695    N        0.47516    0.85039    0.15608    1.000
    N2696    N        0.40565    0.87717    0.14522    1.000
    Si2697   Si       0.43292    0.84315    0.14257    1.000
    N2698    N        0.27639    0.86609    0.33032    1.000
    Si2699   Si       0.35187    0.85014    0.28744    1.000
    Si2700   Si       0.28387    0.87693    0.28704    1.000
    N2701    N        0.34576    0.85076    0.33250    1.000
    N2702    N        0.31042    0.84125    0.28139    1.000
    Si2703   Si       0.41084    0.88181    0.25384    1.000
    Si2704   Si       0.47233    0.85010    0.28820    1.000
    N2705    N        0.43045    0.85137    0.27560    1.000
    Si2706   Si       0.43808    0.84248    0.35999    1.000
    N2707    N        0.47010    0.84142    0.32938    1.000
    N2708    N        0.37039    0.88507    0.27140    1.000
    Si2709   Si       0.37420    0.84372    0.36437    1.000
    N2710    N        0.40764    0.87445    0.36607    1.000
    N2711    N        0.27717    0.85139    0.41453    1.000
    Si2712   Si       0.33202    0.87325    0.47936    1.000
    Si2713   Si       0.31678    0.84750    0.39569    1.000
    Si2714   Si       0.26594    0.85516    0.45623    1.000
    N2715    N        0.29120    0.88743    0.46823    1.000
    N2716    N        0.33165    0.88729    0.38597    1.000
    N2717    N        0.46686    0.84957    0.45741    1.000
    Si2718   Si       0.48305    0.86764    0.41836    1.000
    N2719    N        0.45754    0.83043    0.39731    1.000
    Si2720   Si       0.43454    0.84312    0.48500    1.000
    Si2721   Si       0.32591    0.86551    0.55700    1.000
    N2722    N        0.25116    0.86439    0.54231    1.000
    Si2723   Si       0.25647    0.87048    0.58631    1.000
    N2724    N        0.29826    0.88061    0.58846    1.000
    N2725    N        0.33739    0.88750    0.52029    1.000
    N2726    N        0.36524    0.86232    0.57369    1.000
    Si2727   Si       0.39765    0.85873    0.60179    1.000
    Si2728   Si       0.39346    0.85173    0.54080    1.000
    N2729    N        0.42440    0.84495    0.57151    1.000
    N2730    N        0.40873    0.87261    0.50307    1.000
    N2731    N        0.23763    0.85157    0.67669    1.000
    N2732    N        0.30789    0.85450    0.65834    1.000
    Si2733   Si       0.27759    0.86552    0.69174    1.000
    N2734    N        0.33467    0.85911    0.74717    1.000
    N2735    N        0.43201    0.86822    0.68603    1.000
    Si2736   Si       0.39600    0.87353    0.66173    1.000
    N2737    N        0.36171    0.88147    0.68963    1.000
    Si2738   Si       0.37280    0.86258    0.72687    1.000
    N2739    N        0.38036    0.83753    0.63636    1.000
    N2740    N        0.28079    0.85984    0.78150    1.000
    Si2741   Si       0.24643    0.84528    0.79818    1.000
    Si2742   Si       0.31227    0.88951    0.77284    1.000
    Si2743   Si       0.30168    0.83398    0.75413    1.000
    Si2744   Si       0.42985    0.86261    0.77227    1.000
    N2745    N        0.42575    0.84345    0.81315    1.000
    N2746    N        0.48490    0.86898    0.84766    1.000
    Si2747   Si       0.47855    0.83247    0.87068    1.000
    N2748    N        0.39565    0.88444    0.75790    1.000
    N2749    N        0.44364    0.82973    0.74631    1.000
    Si2750   Si       0.25399    0.84236    0.87834    1.000
    N2751    N        0.26887    0.86422    0.96701    1.000
    Si2752   Si       0.32875    0.86149    0.88652    1.000
    N2753    N        0.32990    0.86528    0.93069    1.000
    N2754    N        0.28695    0.87058    0.88124    1.000
    Si2755   Si       0.35719    0.83484    0.94792    1.000
    N2756    N        0.38773    0.82926    0.91590    1.000
    N2757    N        0.46522    0.83128    0.97695    1.000
    Si2758   Si       0.41933    0.85734    0.91325    1.000
    N2759    N        0.41292    0.88733    0.94399    1.000
    N2760    N        0.45917    0.83936    0.90794    1.000
    N2761    N        0.37036    0.85546    0.98453    1.000
    N2762    N        0.41791    0.87627    0.87505    1.000
    Si2763   Si       0.28497    0.91551    0.02696    1.000
    Si2764   Si       0.31538    0.91190    0.10044    1.000
    N2765    N        0.31046    0.90207    0.05771    1.000
    N2766    N        0.24341    0.90305    0.01906    1.000
    N2767    N        0.35602    0.89587    0.10102    1.000
    Si2768   Si       0.42268    0.90917    0.04389    1.000
    N2769    N        0.43678    0.94690    0.06253    1.000
    N2770    N        0.38219    0.89964    0.03576    1.000
    N2771    N        0.48398    0.91472    0.11917    1.000
    N2772    N        0.43757    0.89147    0.00697    1.000
    Si2773   Si       0.45918    0.95141    0.10150    1.000
    Si2774   Si       0.48705    0.89095    0.08347    1.000
    Si2775   Si       0.28099    0.91611    0.22116    1.000
    Si2776   Si       0.34327    0.92496    0.19175    1.000
    N2777    N        0.32379    0.92074    0.22817    1.000
    N2778    N        0.27405    0.88866    0.18727    1.000
    Si2779   Si       0.45576    0.93692    0.21934    1.000
    N2780    N        0.45086    0.90881    0.18644    1.000
    Si2781   Si       0.40896    0.89828    0.18404    1.000
    N2782    N        0.38623    0.93292    0.19349    1.000
    Si2783   Si       0.47783    0.89275    0.15837    1.000
    N2784    N        0.28716    0.92709    0.35410    1.000
    Si2785   Si       0.34296    0.91952    0.26810    1.000
    N2786    N        0.31475    0.90529    0.29689    1.000
    Si2787   Si       0.32223    0.90287    0.34353    1.000
    Si2788   Si       0.25303    0.89979    0.34775    1.000
    N2789    N        0.35785    0.92771    0.34367    1.000
    N2790    N        0.26130    0.89480    0.25318    1.000
    Si2791   Si       0.47328    0.92471    0.27521    1.000
    N2792    N        0.41922    0.94068    0.33729    1.000
    Si2793   Si       0.39480    0.91436    0.36264    1.000
    N2794    N        0.43593    0.91646    0.25454    1.000
    Si2795   Si       0.29433    0.93090    0.46703    1.000
    Si2796   Si       0.34763    0.91344    0.41825    1.000
    N2797    N        0.31948    0.94196    0.43168    1.000
    N2798    N        0.25594    0.95149    0.46251    1.000
    N2799    N        0.35955    0.89806    0.45650    1.000
    Si2800   Si       0.46730    0.93152    0.46211    1.000
    N2801    N        0.42342    0.93044    0.45993    1.000
    N2802    N        0.38637    0.92990    0.40227    1.000
    N2803    N        0.47817    0.91371    0.42514    1.000
    Si2804   Si       0.39516    0.90596    0.48095    1.000
    Si2805   Si       0.30952    0.92066    0.60298    1.000
    N2806    N        0.32191    0.93464    0.56363    1.000
    Si2807   Si       0.34089    0.92999    0.52535    1.000
    N2808    N        0.30875    0.94959    0.50551    1.000
    N2809    N        0.38136    0.93853    0.51088    1.000
    N2810    N        0.46336    0.93767    0.61019    1.000
    Si2811   Si       0.23792    0.93813    0.62344    1.000
    N2812    N        0.28901    0.90791    0.68977    1.000
    Si2813   Si       0.27525    0.93524    0.72218    1.000
    N2814    N        0.33772    0.92282    0.63559    1.000
    Si2815   Si       0.32658    0.89589    0.66774    1.000
    N2816    N        0.46658    0.92077    0.73117    1.000
    N2817    N        0.41015    0.89268    0.62493    1.000
    Si2818   Si       0.42424    0.93151    0.62831    1.000
    N2819    N        0.48498    0.91401    0.67189    1.000
    Si2820   Si       0.44738    0.90834    0.69482    1.000
    N2821    N        0.42301    0.93581    0.67356    1.000
    Si2822   Si       0.33279    0.92236    0.84009    1.000
    N2823    N        0.29239    0.93416    0.85069    1.000
    N2824    N        0.33907    0.90162    0.80361    1.000
    N2825    N        0.30282    0.92727    0.75392    1.000
    N2826    N        0.34912    0.89407    0.86947    1.000
    Si2827   Si       0.46372    0.92820    0.77273    1.000
    N2828    N        0.40407    0.90757    0.82415    1.000
    Si2829   Si       0.37948    0.91146    0.78814    1.000
    N2830    N        0.46176    0.92865    0.85475    1.000
    Si2831   Si       0.39069    0.90983    0.86736    1.000
    Si2832   Si       0.43856    0.88244    0.83458    1.000
    N2833    N        0.46397    0.88574    0.78816    1.000
    N2834    N        0.30512    0.91631    0.98761    1.000
    Si2835   Si       0.24952    0.94552    0.93786    1.000
    N2836    N        0.28182    0.92039    0.92466    1.000
    Si2837   Si       0.27405    0.91126    0.88276    1.000
    Si2838   Si       0.30116    0.89151    0.95112    1.000
    N2839    N        0.38269    0.93557    0.97758    1.000
    N2840    N        0.39393    0.93669    0.90088    1.000
    Si2841   Si       0.40676    0.93104    0.94194    1.000
    Si2842   Si       0.39406    0.89300    0.98880    1.000
    Si2843   Si       0.28796    0.97272    0.07173    1.000
    N2844    N        0.24846    0.96209    0.08752    1.000
    N2845    N        0.28620    0.95815    0.03106    1.000
    Si2846   Si       0.35745    0.00413    0.06673    1.000
    N2847    N        0.31402    0.95433    0.10256    1.000
    N2848    N        0.31173    0.00673    0.06386    1.000
    N2849    N        0.48864    0.97937    0.08842    1.000
    N2850    N        0.36819    0.99360    0.10922    1.000
    N2851    N        0.44537    0.00242    0.01545    1.000
    Si2852   Si       0.42421    0.98693    0.04916    1.000
    N2853    N        0.38249    0.98353    0.03764    1.000
    N2854    N        0.26149    0.95253    0.20839    1.000
    Si2855   Si       0.33165    0.98287    0.13041    1.000
    N2856    N        0.25014    0.98239    0.15320    1.000
    Si2857   Si       0.28778    0.98548    0.17841    1.000
    N2858    N        0.32287    0.95921    0.16950    1.000
    Si2859   Si       0.25508    0.98404    0.24122    1.000
    N2860    N        0.39737    0.00764    0.16836    1.000
    N2861    N        0.37268    0.99732    0.22378    1.000
    N2862    N        0.43341    0.96654    0.13082    1.000
    Si2863   Si       0.40620    0.00257    0.12518    1.000
    Si2864   Si       0.39884    0.97450    0.19676    1.000
    N2865    N        0.43855    0.97693    0.21581    1.000
    Si2866   Si       0.28284    0.97159    0.35563    1.000
    N2867    N        0.31148    0.00168    0.33619    1.000
    N2868    N        0.24343    0.97565    0.33855    1.000
    N2869    N        0.36591    0.95506    0.27987    1.000
    Si2870   Si       0.45621    0.96236    0.33879    1.000
    Si2871   Si       0.37511    0.99463    0.26869    1.000
    N2872    N        0.47649    0.95977    0.30068    1.000
    N2873    N        0.37926    0.00092    0.33149    1.000
    Si2874   Si       0.38124    0.95884    0.32302    1.000
    N2875    N        0.41657    0.00354    0.27807    1.000
    N2876    N        0.44365    0.00405    0.34291    1.000
    N2877    N        0.48347    0.95902    0.37249    1.000
    N2878    N        0.29969    0.00776    0.44780    1.000
    Si2879   Si       0.26329    0.98627    0.43787    1.000
    Si2880   Si       0.33165    0.98280    0.42682    1.000
    N2881    N        0.26827    0.98168    0.39429    1.000
    N2882    N        0.35025    0.00416    0.39510    1.000
    N2883    N        0.41804    0.99214    0.41110    1.000
    Si2884   Si       0.40285    0.95792    0.43216    1.000
    N2885    N        0.47330    0.97321    0.47292    1.000
    N2886    N        0.36865    0.98039    0.45096    1.000
    Si2887   Si       0.29214    0.99098    0.60577    1.000
    N2888    N        0.29488    0.99750    0.56013    1.000
    Si2889   Si       0.28921    0.95639    0.54299    1.000
    N2890    N        0.24494    0.95420    0.53544    1.000
    N2891    N        0.33422    0.99668    0.61293    1.000
    N2892    N        0.27929    0.94972    0.60846    1.000
    N2893    N        0.37212    0.98932    0.55264    1.000
    Si2894   Si       0.40322    0.98783    0.58359    1.000
    N2895    N        0.43260    0.97198    0.55527    1.000
    Si2896   Si       0.40268    0.97374    0.52394    1.000
    Si2897   Si       0.46996    0.96127    0.57253    1.000
    N2898    N        0.39341    0.96124    0.61496    1.000
    N2899    N        0.48990    0.99835    0.58226    1.000
    Si2900   Si       0.35610    0.96341    0.63419    1.000
    N2901    N        0.26697    0.97858    0.72753    1.000
    N2902    N        0.33149    0.99086    0.73612    1.000
    N2903    N        0.36704    0.98084    0.67493    1.000
    Si2904   Si       0.36486    0.00442    0.71266    1.000
    Si2905   Si       0.40983    0.97572    0.68354    1.000
    N2906    N        0.40301    0.98379    0.72664    1.000
    N2907    N        0.31884    0.98077    0.80278    1.000
    Si2908   Si       0.28581    0.97323    0.83088    1.000
    N2909    N        0.25102    0.98029    0.80663    1.000
    Si2910   Si       0.32859    0.95983    0.76685    1.000
    N2911    N        0.28788    0.99944    0.86490    1.000
    Si2912   Si       0.36061    0.98357    0.81608    1.000
    N2913    N        0.36224    0.95486    0.84782    1.000
    N2914    N        0.44209    0.96559    0.78384    1.000
    Si2915   Si       0.40383    0.97967    0.77024    1.000
    N2916    N        0.47482    0.99903    0.83298    1.000
    Si2917   Si       0.47955    0.98366    0.79353    1.000
    Si2918   Si       0.45775    0.97189    0.86240    1.000
    N2919    N        0.36961    0.95331    0.77974    1.000
    N2920    N        0.42083    0.99373    0.87420    1.000
    N2921    N        0.26706    0.97244    0.96598    1.000
    N2922    N        0.35278    0.99723    0.90573    1.000
    Si2923   Si       0.29964    0.96105    0.98947    1.000
    Si2924   Si       0.24269    0.00591    0.95252    1.000
    N2925    N        0.32828    0.99343    0.99669    1.000
    N2926    N        0.39225    0.99842    0.96715    1.000
    N2927    N        0.48953    0.97659    0.89454    1.000
    Si2928   Si       0.43405    0.99007    0.97254    1.000
    Si2929   Si       0.38310    0.97432    0.88467    1.000
    N2930    N        0.44321    0.95311    0.95123    1.000
    Si2931   Si       0.47780    0.97075    0.93589    1.000
    Si2932   Si       0.36926    0.97573    0.99625    1.000
    N2933    N        0.55018    0.04825    0.10087    1.000
    Si2934   Si       0.57155    0.02337    0.07123    1.000
    N2935    N        0.56850    0.05494    0.04018    1.000
    Si2936   Si       0.55262    0.05177    0.00102    1.000
    N2937    N        0.61458    0.01869    0.08166    1.000
    N2938    N        0.68545    0.05199    0.02748    1.000
    Si2939   Si       0.64152    0.04433    0.10356    1.000
    Si2940   Si       0.72428    0.05450    0.04645    1.000
    N2941    N        0.68200    0.02860    0.11011    1.000
    Si2942   Si       0.72144    0.04259    0.10847    1.000
    N2943    N        0.73337    0.01932    0.07238    1.000
    Si2944   Si       0.52835    0.05044    0.13989    1.000
    N2945    N        0.54862    0.03033    0.17295    1.000
    Si2946   Si       0.56569    0.05050    0.20752    1.000
    N2947    N        0.57995    0.02211    0.23640    1.000
    N2948    N        0.48685    0.04060    0.13025    1.000
    Si2949   Si       0.71487    0.06697    0.18122    1.000
    N2950    N        0.73843    0.05268    0.14620    1.000
    N2951    N        0.67176    0.05786    0.19120    1.000
    Si2952   Si       0.65770    0.02183    0.21220    1.000
    N2953    N        0.62387    0.04110    0.14394    1.000
    Si2954   Si       0.73007    0.01739    0.23824    1.000
    Si2955   Si       0.54763    0.03847    0.31727    1.000
    N2956    N        0.58944    0.03160    0.30436    1.000
    Si2957   Si       0.60486    0.04434    0.26449    1.000
    N2958    N        0.55639    0.05627    0.35784    1.000
    Si2959   Si       0.50096    0.06194    0.25284    1.000
    N2960    N        0.52119    0.06726    0.29567    1.000
    Si2961   Si       0.73119    0.05314    0.30471    1.000
    Si2962   Si       0.67670    0.04539    0.35086    1.000
    N2963    N        0.71244    0.02780    0.27653    1.000
    N2964    N        0.64452    0.02974    0.25309    1.000
    N2965    N        0.65554    0.02041    0.32115    1.000
    N2966    N        0.71775    0.05101    0.34605    1.000
    Si2967   Si       0.67366    0.01168    0.28335    1.000
    N2968    N        0.61005    0.01852    0.37261    1.000
    N2969    N        0.51010    0.03025    0.45620    1.000
    Si2970   Si       0.55325    0.02954    0.45983    1.000
    Si2971   Si       0.56976    0.02904    0.38712    1.000
    N2972    N        0.57360    0.04669    0.42624    1.000
    Si2973   Si       0.49275    0.00794    0.48946    1.000
    Si2974   Si       0.71006    0.02893    0.41497    1.000
    Si2975   Si       0.64036    0.02423    0.40253    1.000
    Si2976   Si       0.66406    0.06185    0.45990    1.000
    N2977    N        0.67826    0.02103    0.38610    1.000
    N2978    N        0.69377    0.02980    0.45413    1.000
    Si2979   Si       0.72352    0.02466    0.48739    1.000
    N2980    N        0.62974    0.04823    0.48242    1.000
    N2981    N        0.64026    0.06407    0.42229    1.000
    Si2982   Si       0.61994    0.00523    0.47302    1.000
    Si2983   Si       0.60261    0.03256    0.57808    1.000
    Si2984   Si       0.49887    0.02310    0.54822    1.000
    N2985    N        0.55038    0.01544    0.61174    1.000
    N2986    N        0.55302    0.04240    0.50006    1.000
    N2987    N        0.51355    0.06534    0.55348    1.000
    Si2988   Si       0.55174    0.05778    0.62074    1.000
    N2989    N        0.61323    0.01178    0.61533    1.000
    Si2990   Si       0.72641    0.03901    0.55743    1.000
    N2991    N        0.64080    0.04552    0.55965    1.000
    N2992    N        0.69890    0.02880    0.52304    1.000
    Si2993   Si       0.66051    0.01212    0.53903    1.000
    Si2994   Si       0.57912    0.03759    0.69767    1.000
    N2995    N        0.58773    0.06052    0.73442    1.000
    N2996    N        0.57651    0.06103    0.65914    1.000
    N2997    N        0.54636    0.00975    0.70572    1.000
    Si2998   Si       0.50820    0.00827    0.72753    1.000
    N2999    N        0.49336    0.02761    0.64774    1.000
    N3000    N        0.61880    0.01896    0.68884    1.000
    N3001    N        0.73187    0.04102    0.63899    1.000
    N3002    N        0.66664    0.02691    0.63826    1.000
    Si3003   Si       0.70537    0.06035    0.73359    1.000
    Si3004   Si       0.62686    0.03984    0.65021    1.000
    Si3005   Si       0.70006    0.02936    0.66550    1.000
    N3006    N        0.68334    0.02345    0.74630    1.000
    N3007    N        0.56401    0.03660    0.79302    1.000
    Si3008   Si       0.52319    0.04946    0.78396    1.000
    Si3009   Si       0.57085    0.02274    0.83538    1.000
    Si3010   Si       0.59951    0.03358    0.76953    1.000
    N3011    N        0.60199    0.05150    0.85135    1.000
    N3012    N        0.53376    0.01819    0.85983    1.000
    Si3013   Si       0.49413    0.03355    0.85018    1.000
    N3014    N        0.50181    0.01389    0.77114    1.000
    N3015    N        0.50547    0.06380    0.82072    1.000
    N3016    N        0.63648    0.04910    0.78787    1.000
    N3017    N        0.68274    0.04842    0.84153    1.000
    Si3018   Si       0.70900    0.01901    0.82593    1.000
    Si3019   Si       0.65723    0.01116    0.77802    1.000
    Si3020   Si       0.64077    0.06034    0.83059    1.000
    Si3021   Si       0.60248    0.05762    0.89362    1.000
    N3022    N        0.52841    0.02550    0.92561    1.000
    N3023    N        0.59557    0.02190    0.91536    1.000
    Si3024   Si       0.56768    0.04261    0.94042    1.000
    N3025    N        0.59063    0.04679    0.97884    1.000
    N3026    N        0.52101    0.02260    0.99731    1.000
    N3027    N        0.65003    0.00643    0.97599    1.000
    N3028    N        0.71570    0.03799    0.96529    1.000
    Si3029   Si       0.67837    0.03997    0.98651    1.000
    Si3030   Si       0.71544    0.02957    0.92181    1.000
    N3031    N        0.51168    0.09988    0.05465    1.000
    Si3032   Si       0.54722    0.07915    0.06974    1.000
    N3033    N        0.56549    0.11427    0.08896    1.000
    N3034    N        0.64968    0.08389    0.08496    1.000
    Si3035   Si       0.66404    0.08823    0.04349    1.000
    N3036    N        0.62952    0.09949    0.01969    1.000
    N3037    N        0.72791    0.08134    0.08358    1.000
    Si3038   Si       0.65235    0.11934    0.10887    1.000
    N3039    N        0.69049    0.12217    0.04176    1.000
    Si3040   Si       0.71372    0.12385    0.07734    1.000
    N3041    N        0.53682    0.09112    0.15121    1.000
    Si3042   Si       0.53804    0.10764    0.19221    1.000
    Si3043   Si       0.59907    0.10794    0.22512    1.000
    N3044    N        0.59988    0.07355    0.19768    1.000
    N3045    N        0.53063    0.07422    0.22172    1.000
    Si3046   Si       0.53886    0.12625    0.12335    1.000
    Si3047   Si       0.63436    0.07418    0.17063    1.000
    N3048    N        0.72419    0.10892    0.17582    1.000
    N3049    N        0.63980    0.12372    0.22138    1.000
    N3050    N        0.64155    0.11074    0.15164    1.000
    N3051    N        0.59320    0.08689    0.26256    1.000
    Si3052   Si       0.50876    0.10652    0.30948    1.000
    Si3053   Si       0.56844    0.09925    0.35593    1.000
    N3054    N        0.52875    0.11663    0.34814    1.000
    N3055    N        0.59943    0.11796    0.32688    1.000
    Si3056   Si       0.58336    0.12060    0.28882    1.000
    N3057    N        0.65552    0.08259    0.34762    1.000
    Si3058   Si       0.64565    0.12024    0.33261    1.000
    N3059    N        0.73763    0.09243    0.28675    1.000
    N3060    N        0.58849    0.10421    0.39477    1.000
    Si3061   Si       0.60108    0.07963    0.42832    1.000
    N3062    N        0.59510    0.10236    0.46462    1.000
    N3063    N        0.52598    0.10727    0.49582    1.000
    N3064    N        0.72558    0.06864    0.40925    1.000
    Si3065   Si       0.72330    0.08656    0.44872    1.000
    N3066    N        0.68551    0.09866    0.46162    1.000
    Si3067   Si       0.50752    0.09758    0.57947    1.000
    Si3068   Si       0.58394    0.11231    0.57292    1.000
    N3069    N        0.58303    0.09208    0.52993    1.000
    Si3070   Si       0.54294    0.07750    0.52158    1.000
    N3071    N        0.51587    0.08363    0.61960    1.000
    N3072    N        0.58123    0.07026    0.59012    1.000
    Si3073   Si       0.61503    0.08383    0.50152    1.000
    Si3074   Si       0.66326    0.08201    0.55529    1.000
    N3075    N        0.65282    0.09998    0.51793    1.000
    Si3076   Si       0.70007    0.11022    0.59607    1.000
    N3077    N        0.65879    0.11658    0.58362    1.000
    N3078    N        0.70452    0.07255    0.57314    1.000
    N3079    N        0.59158    0.12177    0.69172    1.000
    Si3080   Si       0.58921    0.10419    0.73058    1.000
    Si3081   Si       0.59728    0.10015    0.65536    1.000
    N3082    N        0.48837    0.09634    0.68386    1.000
    Si3083   Si       0.67394    0.09811    0.67077    1.000
    N3084    N        0.63677    0.08338    0.65442    1.000
    N3085    N        0.70171    0.10817    0.63886    1.000
    N3086    N        0.62884    0.11199    0.74873    1.000
    N3087    N        0.69268    0.06399    0.69192    1.000
    N3088    N        0.51225    0.08234    0.75544    1.000
    Si3089   Si       0.49720    0.10448    0.82850    1.000
    Si3090   Si       0.52074    0.12490    0.76181    1.000
    N3091    N        0.69354    0.09240    0.75999    1.000
    N3092    N        0.65089    0.10017    0.81680    1.000
    Si3093   Si       0.65240    0.08971    0.77501    1.000
    Si3094   Si       0.70533    0.07721    0.86617    1.000
    N3095    N        0.69911    0.12210    0.86258    1.000
    N3096    N        0.74296    0.07579    0.84389    1.000
    N3097    N        0.49646    0.11418    0.87115    1.000
    Si3098   Si       0.49546    0.09573    0.97367    1.000
    N3099    N        0.57122    0.07910    0.91384    1.000
    N3100    N        0.53665    0.08289    0.97339    1.000
    N3101    N        0.59621    0.11519    0.96807    1.000
    Si3102   Si       0.56098    0.10780    0.94486    1.000
    N3103    N        0.65667    0.07054    0.96527    1.000
    N3104    N        0.63444    0.08672    0.90132    1.000
    Si3105   Si       0.67081    0.08754    0.92722    1.000
    Si3106   Si       0.61861    0.07934    0.98136    1.000
    N3107    N        0.70292    0.06767    0.90664    1.000
    N3108    N        0.58325    0.15170    0.03186    1.000
    Si3109   Si       0.58929    0.14943    0.07559    1.000
    N3110    N        0.50361    0.14355    0.10615    1.000
    Si3111   Si       0.50105    0.14227    0.06358    1.000
    N3112    N        0.51476    0.17776    0.04041    1.000
    Si3113   Si       0.55262    0.17953    0.01797    1.000
    Si3114   Si       0.61112    0.13700    0.00358    1.000
    N3115    N        0.62911    0.15040    0.09029    1.000
    Si3116   Si       0.68447    0.16087    0.02112    1.000
    N3117    N        0.69051    0.14032    0.11075    1.000
    Si3118   Si       0.66820    0.17821    0.09874    1.000
    N3119    N        0.64501    0.16488    0.99996    1.000
    Si3120   Si       0.57312    0.17101    0.18634    1.000
    N3121    N        0.55639    0.15934    0.14697    1.000
    N3122    N        0.50382    0.13299    0.19866    1.000
    N3123    N        0.56903    0.13371    0.20830    1.000
    Si3124   Si       0.64726    0.14362    0.18061    1.000
    Si3125   Si       0.69793    0.17837    0.21914    1.000
    N3126    N        0.61621    0.17309    0.17902    1.000
    Si3127   Si       0.70944    0.14054    0.14943    1.000
    N3128    N        0.68628    0.16254    0.17894    1.000
    Si3129   Si       0.52535    0.15934    0.35778    1.000
    N3130    N        0.50141    0.17125    0.32321    1.000
    Si3131   Si       0.52189    0.16968    0.28233    1.000
    N3132    N        0.60577    0.15375    0.26975    1.000
    N3133    N        0.54152    0.13079    0.28608    1.000
    N3134    N        0.48687    0.16268    0.25726    1.000
    N3135    N        0.56548    0.16499    0.37161    1.000
    N3136    N        0.72552    0.15171    0.31975    1.000
    Si3137   Si       0.64747    0.14704    0.25808    1.000
    N3138    N        0.66580    0.15056    0.35777    1.000
    Si3139   Si       0.70126    0.17795    0.34562    1.000
    N3140    N        0.71876    0.15128    0.24825    1.000
    Si3141   Si       0.71054    0.12750    0.28540    1.000
    N3142    N        0.66619    0.12518    0.29158    1.000
    Si3143   Si       0.49151    0.13383    0.49540    1.000
    N3144    N        0.54485    0.13683    0.43565    1.000
    Si3145   Si       0.57804    0.14528    0.40882    1.000
    N3146    N        0.49652    0.16335    0.39065    1.000
    Si3147   Si       0.50190    0.13768    0.42484    1.000
    Si3148   Si       0.55935    0.12637    0.47530    1.000
    N3149    N        0.61599    0.16582    0.41885    1.000
    Si3150   Si       0.67339    0.12885    0.49174    1.000
    N3151    N        0.64178    0.15909    0.48360    1.000
    Si3152   Si       0.65051    0.17263    0.39246    1.000
    Si3153   Si       0.54102    0.17089    0.57748    1.000
    N3154    N        0.60510    0.14545    0.55315    1.000
    Si3155   Si       0.61018    0.16556    0.51470    1.000
    N3156    N        0.50027    0.16823    0.52095    1.000
    N3157    N        0.50000    0.17720    0.59403    1.000
    N3158    N        0.59397    0.12578    0.61864    1.000
    N3159    N        0.54110    0.12583    0.57301    1.000
    N3160    N        0.57047    0.16419    0.49429    1.000
    N3161    N        0.71268    0.14393    0.50733    1.000
    N3162    N        0.66896    0.17610    0.54847    1.000
    Si3163   Si       0.64035    0.15438    0.57414    1.000
    Si3164   Si       0.71182    0.16656    0.54563    1.000
    N3165    N        0.72164    0.14050    0.57783    1.000
    Si3166   Si       0.59689    0.16775    0.62552    1.000
    N3167    N        0.50625    0.16456    0.66581    1.000
    N3168    N        0.60882    0.17697    0.73036    1.000
    N3169    N        0.49734    0.14542    0.73336    1.000
    N3170    N        0.66499    0.13385    0.69155    1.000
    N3171    N        0.73060    0.17487    0.68345    1.000
    Si3172   Si       0.62462    0.15216    0.69790    1.000
    Si3173   Si       0.69192    0.16745    0.70334    1.000
    N3174    N        0.61569    0.17710    0.66234    1.000
    Si3175   Si       0.54274    0.16441    0.82081    1.000
    N3176    N        0.55817    0.15585    0.85867    1.000
    Si3177   Si       0.57509    0.17302    0.75534    1.000
    N3178    N        0.52005    0.13381    0.80281    1.000
    N3179    N        0.56341    0.13157    0.75435    1.000
    N3180    N        0.57668    0.18364    0.79995    1.000
    N3181    N        0.67347    0.16904    0.81466    1.000
    Si3182   Si       0.66341    0.13476    0.83944    1.000
    N3183    N        0.63492    0.14715    0.86642    1.000
    Si3184   Si       0.71897    0.12755    0.76012    1.000
    N3185    N        0.69556    0.16291    0.74676    1.000
    Si3186   Si       0.59746    0.17049    0.87052    1.000
    Si3187   Si       0.51963    0.16093    0.95900    1.000
    Si3188   Si       0.52557    0.14425    0.88501    1.000
    N3189    N        0.60090    0.15844    0.91291    1.000
    N3190    N        0.53415    0.13572    0.92606    1.000
    N3191    N        0.55976    0.17056    0.97485    1.000
    N3192    N        0.49726    0.17703    0.88461    1.000
    N3193    N        0.71210    0.16667    0.98883    1.000
    N3194    N        0.66737    0.13086    0.93497    1.000
    Si3195   Si       0.73243    0.14575    0.87960    1.000
    Si3196   Si       0.63409    0.13081    0.90694    1.000
    N3197    N        0.73376    0.15398    0.92376    1.000
    Si3198   Si       0.69634    0.16310    0.94607    1.000
    N3199    N        0.56410    0.22165    0.02418    1.000
    Si3200   Si       0.57920    0.22415    0.06489    1.000
    N3201    N        0.56806    0.18557    0.08505    1.000
    N3202    N        0.72084    0.20886    0.10688    1.000
    Si3203   Si       0.71803    0.21333    0.06375    1.000
    N3204    N        0.66724    0.23551    0.00194    1.000
    N3205    N        0.62105    0.23584    0.06252    1.000
    N3206    N        0.68358    0.18574    0.05821    1.000
    Si3207   Si       0.55238    0.19446    0.12419    1.000
    N3208    N        0.51313    0.20955    0.12547    1.000
    N3209    N        0.55566    0.20655    0.20098    1.000
    N3210    N        0.58345    0.21826    0.13944    1.000
    Si3211   Si       0.53714    0.24359    0.19563    1.000
    N3212    N        0.65140    0.20983    0.12304    1.000
    N3213    N        0.72845    0.20789    0.22096    1.000
    Si3214   Si       0.63784    0.22242    0.22761    1.000
    N3215    N        0.62876    0.23632    0.18646    1.000
    Si3216   Si       0.62032    0.20873    0.15619    1.000
    N3217    N        0.66098    0.18467    0.24074    1.000
    N3218    N        0.53936    0.21877    0.34805    1.000
    N3219    N        0.55216    0.19811    0.27871    1.000
    Si3220   Si       0.50312    0.21579    0.32659    1.000
    Si3221   Si       0.58106    0.20537    0.36016    1.000
    Si3222   Si       0.59606    0.19221    0.28524    1.000
    N3223    N        0.60791    0.20419    0.32503    1.000
    N3224    N        0.60694    0.22811    0.25743    1.000
    Si3225   Si       0.56232    0.23673    0.26282    1.000
    N3226    N        0.49134    0.22293    0.28628    1.000
    Si3227   Si       0.64806    0.21988    0.33189    1.000
    N3228    N        0.68810    0.20947    0.32018    1.000
    Si3229   Si       0.72325    0.23345    0.30832    1.000
    N3230    N        0.52236    0.21380    0.47794    1.000
    N3231    N        0.57727    0.23163    0.39648    1.000
    N3232    N        0.67611    0.18505    0.42648    1.000
    N3233    N        0.65671    0.21218    0.37545    1.000
    Si3234   Si       0.63940    0.18734    0.45135    1.000
    N3235    N        0.72591    0.19527    0.38071    1.000
    Si3236   Si       0.69423    0.21900    0.40182    1.000
    N3237    N        0.62412    0.22799    0.45398    1.000
    N3238    N        0.54777    0.20196    0.54941    1.000
    Si3239   Si       0.53102    0.24097    0.55746    1.000
    Si3240   Si       0.53748    0.18745    0.50844    1.000
    N3241    N        0.55852    0.18147    0.61804    1.000
    Si3242   Si       0.59040    0.24337    0.53424    1.000
    N3243    N        0.61426    0.20752    0.52416    1.000
    N3244    N        0.67508    0.23093    0.49994    1.000
    N3245    N        0.72991    0.20600    0.54129    1.000
    Si3246   Si       0.65602    0.21299    0.53504    1.000
    Si3247   Si       0.63143    0.22935    0.59561    1.000
    Si3248   Si       0.71563    0.23587    0.51301    1.000
    N3249    N        0.62829    0.18551    0.60204    1.000
    N3250    N        0.66201    0.24114    0.56878    1.000
    N3251    N        0.51062    0.23055    0.64820    1.000
    Si3252   Si       0.51693    0.18982    0.63370    1.000
    N3253    N        0.60735    0.24259    0.70473    1.000
    Si3254   Si       0.49999    0.18923    0.74253    1.000
    N3255    N        0.54265    0.19827    0.73994    1.000
    Si3256   Si       0.72878    0.20206    0.64740    1.000
    N3257    N        0.63448    0.24170    0.63781    1.000
    Si3258   Si       0.65033    0.20378    0.65503    1.000
    N3259    N        0.66481    0.20143    0.69753    1.000
    N3260    N        0.68636    0.19597    0.63651    1.000
    Si3261   Si       0.63188    0.21398    0.72438    1.000
    N3262    N        0.52439    0.20642    0.82358    1.000
    Si3263   Si       0.56703    0.22328    0.82479    1.000
    N3264    N        0.60030    0.21142    0.85649    1.000
    Si3265   Si       0.50347    0.21743    0.86900    1.000
    Si3266   Si       0.48834    0.22320    0.80666    1.000
    Si3267   Si       0.69450    0.20100    0.83630    1.000
    N3268    N        0.71034    0.21551    0.79725    1.000
    N3269    N        0.64785    0.21686    0.76567    1.000
    Si3270   Si       0.68157    0.19099    0.77636    1.000
    Si3271   Si       0.63464    0.24192    0.85803    1.000
    N3272    N        0.72929    0.18457    0.85982    1.000
    N3273    N        0.67073    0.21873    0.86837    1.000
    Si3274   Si       0.58051    0.23907    0.88640    1.000
    N3275    N        0.50261    0.19962    0.95538    1.000
    Si3276   Si       0.52690    0.23121    0.93692    1.000
    N3277    N        0.56330    0.21398    0.91614    1.000
    N3278    N        0.60746    0.21345    0.96609    1.000
    Si3279   Si       0.58526    0.18585    0.94106    1.000
    N3280    N        0.50184    0.24302    0.90380    1.000
    Si3281   Si       0.64735    0.20431    0.97741    1.000
    N3282    N        0.67467    0.20109    0.94085    1.000
    N3283    N        0.72959    0.23358    0.90646    1.000
    N3284    N        0.73602    0.23132    0.97908    1.000
    Si3285   Si       0.68462    0.22936    0.90663    1.000
    Si3286   Si       0.51729    0.26939    0.07808    1.000
    N3287    N        0.55701    0.25308    0.08821    1.000
    N3288    N        0.60666    0.27079    0.00366    1.000
    N3289    N        0.50109    0.28112    0.11735    1.000
    Si3290   Si       0.70840    0.25307    0.00571    1.000
    Si3291   Si       0.63948    0.25724    0.02858    1.000
    N3292    N        0.67264    0.26598    0.09867    1.000
    N3293    N        0.72123    0.25445    0.04782    1.000
    N3294    N        0.65672    0.29463    0.04074    1.000
    Si3295   Si       0.73526    0.28764    0.07294    1.000
    Si3296   Si       0.63617    0.24225    0.10088    1.000
    N3297    N        0.55635    0.27406    0.16792    1.000
    N3298    N        0.53396    0.25595    0.23740    1.000
    Si3299   Si       0.57281    0.25892    0.12876    1.000
    N3300    N        0.49442    0.24307    0.18343    1.000
    N3301    N        0.61303    0.27295    0.12092    1.000
    Si3302   Si       0.71152    0.24889    0.24252    1.000
    N3303    N        0.69383    0.26184    0.16088    1.000
    Si3304   Si       0.66137    0.26648    0.18813    1.000
    Si3305   Si       0.70267    0.24498    0.12170    1.000
    N3306    N        0.67237    0.25102    0.22726    1.000
    Si3307   Si       0.72810    0.28806    0.16942    1.000
    N3308    N        0.57427    0.26942    0.29031    1.000
    N3309    N        0.55636    0.28509    0.35689    1.000
    Si3310   Si       0.50157    0.26282    0.26550    1.000
    N3311    N        0.51405    0.29185    0.29610    1.000
    Si3312   Si       0.55219    0.29600    0.31736    1.000
    Si3313   Si       0.61648    0.26857    0.28051    1.000
    N3314    N        0.64223    0.26229    0.31455    1.000
    N3315    N        0.70929    0.26587    0.28206    1.000
    Si3316   Si       0.65281    0.29612    0.33762    1.000
    N3317    N        0.62313    0.29778    0.25050    1.000
    N3318    N        0.73930    0.25591    0.34136    1.000
    Si3319   Si       0.54088    0.24997    0.37856    1.000
    Si3320   Si       0.54010    0.29849    0.43089    1.000
    N3321    N        0.51506    0.26641    0.40786    1.000
    N3322    N        0.56102    0.26969    0.45516    1.000
    Si3323   Si       0.53283    0.25454    0.48428    1.000
    Si3324   Si       0.59355    0.25120    0.43226    1.000
    N3325    N        0.49668    0.27655    0.49051    1.000
    Si3326   Si       0.59204    0.30077    0.37944    1.000
    Si3327   Si       0.66246    0.28560    0.41772    1.000
    Si3328   Si       0.64133    0.25438    0.48521    1.000
    N3329    N        0.67407    0.28892    0.37408    1.000
    N3330    N        0.69392    0.25496    0.42746    1.000
    N3331    N        0.61759    0.28098    0.41035    1.000
    Si3332   Si       0.73085    0.26556    0.45004    1.000
    N3333    N        0.65072    0.29262    0.46456    1.000
    N3334    N        0.72413    0.30378    0.46947    1.000
    Si3335   Si       0.57657    0.27849    0.59429    1.000
    N3336    N        0.53157    0.27184    0.58877    1.000
    N3337    N        0.55190    0.25834    0.52333    1.000
    N3338    N        0.59353    0.24247    0.57782    1.000
    N3339    N        0.62054    0.27207    0.52007    1.000
    Si3340   Si       0.68526    0.27777    0.56551    1.000
    N3341    N        0.71464    0.27483    0.53273    1.000
    N3342    N        0.70601    0.28232    0.60323    1.000
    Si3343   Si       0.73704    0.30528    0.51185    1.000
    N3344    N        0.57092    0.29741    0.74444    1.000
    Si3345   Si       0.52792    0.26745    0.63469    1.000
    Si3346   Si       0.60474    0.28197    0.72298    1.000
    N3347    N        0.61315    0.30138    0.68174    1.000
    N3348    N        0.57308    0.26979    0.63750    1.000
    Si3349   Si       0.60582    0.26198    0.66373    1.000
    N3350    N        0.50279    0.30047    0.73977    1.000
    Si3351   Si       0.53499    0.28978    0.84806    1.000
    Si3352   Si       0.57433    0.29239    0.78759    1.000
    N3353    N        0.55078    0.25056    0.85717    1.000
    N3354    N        0.58520    0.25078    0.79521    1.000
    N3355    N        0.53425    0.29510    0.80453    1.000
    N3356    N        0.49398    0.29603    0.86341    1.000
    Si3357   Si       0.49623    0.29763    0.78315    1.000
    N3358    N        0.63430    0.27636    0.75375    1.000
    N3359    N        0.64727    0.26488    0.82273    1.000
    Si3360   Si       0.62824    0.24846    0.78732    1.000
    N3361    N        0.70925    0.29181    0.74851    1.000
    Si3362   Si       0.66834    0.30289    0.75755    1.000
    N3363    N        0.54474    0.25769    0.96716    1.000
    Si3364   Si       0.53590    0.30064    0.96365    1.000
    Si3365   Si       0.57981    0.23913    0.98832    1.000
    N3366    N        0.61470    0.26777    0.88667    1.000
    N3367    N        0.70664    0.29712    0.99375    1.000
    N3368    N        0.67616    0.27332    0.90619    1.000
    Si3369   Si       0.70824    0.30207    0.91235    1.000
    N3370    N        0.58340    0.32703    0.04126    1.000
    N3371    N        0.51766    0.31301    0.06168    1.000
    Si3372   Si       0.54645    0.34280    0.05446    1.000
    Si3373   Si       0.60051    0.31633    0.00251    1.000
    Si3374   Si       0.49210    0.35316    0.00580    1.000
    N3375    N        0.70763    0.32142    0.07162    1.000
    N3376    N        0.64324    0.32984    0.10457    1.000
    Si3377   Si       0.67480    0.32176    0.01181    1.000
    N3378    N        0.69432    0.36034    0.02088    1.000
    Si3379   Si       0.66823    0.30370    0.07942    1.000
    N3380    N        0.51942    0.33411    0.16396    1.000
    Si3381   Si       0.56001    0.31753    0.17308    1.000
    N3382    N        0.58656    0.33147    0.14134    1.000
    N3383    N        0.58031    0.33812    0.20804    1.000
    N3384    N        0.71109    0.32486    0.18654    1.000
    Si3385   Si       0.73564    0.31731    0.22238    1.000
    N3386    N        0.65402    0.35310    0.21926    1.000
    Si3387   Si       0.62233    0.32205    0.21646    1.000
    Si3388   Si       0.67250    0.34156    0.18243    1.000
    N3389    N        0.64239    0.30649    0.17906    1.000
    Si3390   Si       0.62414    0.30968    0.13675    1.000
    N3391    N        0.56598    0.33856    0.31763    1.000
    Si3392   Si       0.60291    0.35651    0.34167    1.000
    N3393    N        0.61854    0.31660    0.35011    1.000
    N3394    N        0.68464    0.32194    0.32131    1.000
    N3395    N        0.72029    0.32967    0.26058    1.000
    Si3396   Si       0.71510    0.30599    0.29608    1.000
    N3397    N        0.51312    0.32509    0.44787    1.000
    N3398    N        0.56783    0.32302    0.40674    1.000
    Si3399   Si       0.58345    0.36232    0.41952    1.000
    N3400    N        0.73766    0.35773    0.43567    1.000
    N3401    N        0.62136    0.35634    0.44160    1.000
    Si3402   Si       0.70308    0.33876    0.45453    1.000
    Si3403   Si       0.69473    0.32561    0.37943    1.000
    Si3404   Si       0.64189    0.33605    0.47446    1.000
    N3405    N        0.67783    0.35760    0.48526    1.000
    N3406    N        0.67731    0.32987    0.42039    1.000
    Si3407   Si       0.59870    0.34971    0.59380    1.000
    N3408    N        0.52205    0.34659    0.59050    1.000
    N3409    N        0.59475    0.31198    0.57261    1.000
    Si3410   Si       0.50367    0.30484    0.58865    1.000
    N3411    N        0.61709    0.34390    0.51209    1.000
    Si3412   Si       0.62313    0.30957    0.54203    1.000
    N3413    N        0.66190    0.31599    0.56206    1.000
    Si3414   Si       0.66877    0.35413    0.58370    1.000
    N3415    N        0.70238    0.35287    0.61410    1.000
    N3416    N        0.73639    0.34925    0.52123    1.000
    N3417    N        0.57624    0.34382    0.63010    1.000
    Si3418   Si       0.53825    0.32192    0.72697    1.000
    Si3419   Si       0.53288    0.34066    0.63540    1.000
    N3420    N        0.54880    0.33570    0.68797    1.000
    Si3421   Si       0.59085    0.33789    0.67004    1.000
    N3422    N        0.50748    0.30604    0.63469    1.000
    Si3423   Si       0.71086    0.31509    0.71049    1.000
    Si3424   Si       0.65045    0.32076    0.68326    1.000
    N3425    N        0.73297    0.35200    0.71762    1.000
    Si3426   Si       0.70900    0.31431    0.63226    1.000
    N3427    N        0.69057    0.31310    0.67098    1.000
    N3428    N        0.66304    0.32929    0.72423    1.000
    N3429    N        0.60668    0.32106    0.80324    1.000
    N3430    N        0.55814    0.32133    0.86745    1.000
    N3431    N        0.67612    0.32334    0.79587    1.000
    N3432    N        0.64144    0.32705    0.85946    1.000
    Si3433   Si       0.71344    0.34141    0.80738    1.000
    Si3434   Si       0.64510    0.30760    0.82058    1.000
    Si3435   Si       0.73555    0.35791    0.86975    1.000
    N3436    N        0.70014    0.36400    0.84372    1.000
    Si3437   Si       0.59907    0.33170    0.87057    1.000
    Si3438   Si       0.52924    0.34034    0.89452    1.000
    N3439    N        0.60795    0.32732    0.91348    1.000
    N3440    N        0.50086    0.31455    0.98680    1.000
    Si3441   Si       0.58162    0.35019    0.93912    1.000
    N3442    N        0.57109    0.32362    0.97149    1.000
    N3443    N        0.52038    0.30785    0.92172    1.000
    Si3444   Si       0.64264    0.30266    0.90046    1.000
    N3445    N        0.67703    0.33157    0.92008    1.000
    N3446    N        0.72805    0.31544    0.87503    1.000
    N3447    N        0.63886    0.33563    0.99060    1.000
    N3448    N        0.53061    0.37123    0.02433    1.000
    Si3449   Si       0.52008    0.41001    0.00744    1.000
    Si3450   Si       0.53947    0.40817    0.10332    1.000
    N3451    N        0.55704    0.37002    0.08705    1.000
    N3452    N        0.49722    0.41226    0.09618    1.000
    N3453    N        0.61656    0.40300    0.00618    1.000
    N3454    N        0.68868    0.38546    0.08920    1.000
    Si3455   Si       0.65689    0.36960    0.11149    1.000
    N3456    N        0.61846    0.39166    0.11219    1.000
    Si3457   Si       0.71244    0.36273    0.06080    1.000
    Si3458   Si       0.58267    0.36861    0.12105    1.000
    N3459    N        0.55280    0.39346    0.14356    1.000
    N3460    N        0.53069    0.38747    0.20812    1.000
    Si3461   Si       0.57272    0.38071    0.22068    1.000
    Si3462   Si       0.51866    0.37688    0.16754    1.000
    N3463    N        0.59051    0.41447    0.20107    1.000
    Si3464   Si       0.51274    0.40316    0.24497    1.000
    N3465    N        0.71765    0.41208    0.16537    1.000
    N3466    N        0.70924    0.39370    0.23433    1.000
    Si3467   Si       0.67631    0.41416    0.16058    1.000
    Si3468   Si       0.66590    0.39340    0.23165    1.000
    N3469    N        0.66652    0.37116    0.15367    1.000
    N3470    N        0.50480    0.40375    0.34988    1.000
    N3471    N        0.51465    0.38404    0.28535    1.000
    Si3472   Si       0.55607    0.37417    0.29619    1.000
    N3473    N        0.57427    0.40232    0.32513    1.000
    N3474    N        0.57897    0.38623    0.26302    1.000
    Si3475   Si       0.61292    0.40616    0.29194    1.000
    N3476    N        0.70087    0.38658    0.30114    1.000
    N3477    N        0.63247    0.37358    0.31486    1.000
    Si3478   Si       0.72632    0.37150    0.26806    1.000
    N3479    N        0.63813    0.41371    0.25703    1.000
    N3480    N        0.67709    0.36513    0.36893    1.000
    Si3481   Si       0.67253    0.36400    0.32522    1.000
    N3482    N        0.54684    0.38315    0.41993    1.000
    N3483    N        0.49640    0.39339    0.46664    1.000
    Si3484   Si       0.50858    0.36592    0.43506    1.000
    N3485    N        0.60907    0.37027    0.38324    1.000
    Si3486   Si       0.69552    0.40347    0.38131    1.000
    N3487    N        0.73800    0.40660    0.38762    1.000
    N3488    N        0.66431    0.40722    0.41437    1.000
    Si3489   Si       0.64653    0.36343    0.40501    1.000
    Si3490   Si       0.51219    0.38736    0.57562    1.000
    N3491    N        0.58975    0.38067    0.56578    1.000
    Si3492   Si       0.59694    0.38145    0.52272    1.000
    N3493    N        0.49722    0.37913    0.53310    1.000
    Si3494   Si       0.51723    0.40267    0.50269    1.000
    N3495    N        0.55719    0.38922    0.50656    1.000
    Si3496   Si       0.58133    0.41616    0.58756    1.000
    N3497    N        0.53853    0.42077    0.58532    1.000
    N3498    N        0.67744    0.38253    0.55358    1.000
    Si3499   Si       0.70156    0.37514    0.51609    1.000
    N3500    N        0.72200    0.41340    0.52390    1.000
    N3501    N        0.71363    0.41537    0.60469    1.000
    N3502    N        0.61866    0.41803    0.51306    1.000
    N3503    N        0.63564    0.36261    0.61006    1.000
    Si3504   Si       0.73533    0.37866    0.61325    1.000
    Si3505   Si       0.70095    0.42227    0.56348    1.000
    Si3506   Si       0.53098    0.37737    0.69867    1.000
    Si3507   Si       0.58949    0.40632    0.73003    1.000
    N3508    N        0.51095    0.37195    0.65392    1.000
    N3509    N        0.56842    0.40225    0.69082    1.000
    N3510    N        0.50741    0.41384    0.70997    1.000
    N3511    N        0.59231    0.41325    0.62892    1.000
    N3512    N        0.53949    0.36462    0.74248    1.000
    N3513    N        0.67528    0.39847    0.73480    1.000
    Si3514   Si       0.63063    0.38770    0.64360    1.000
    N3515    N        0.62782    0.36079    0.67933    1.000
    Si3516   Si       0.64500    0.37122    0.72026    1.000
    Si3517   Si       0.71801    0.38660    0.74101    1.000
    Si3518   Si       0.54286    0.39101    0.77664    1.000
    N3519    N        0.56930    0.37869    0.80694    1.000
    Si3520   Si       0.57540    0.40518    0.84159    1.000
    N3521    N        0.50196    0.40534    0.78353    1.000
    N3522    N        0.61397    0.37542    0.75109    1.000
    Si3523   Si       0.60767    0.36228    0.79296    1.000
    N3524    N        0.59436    0.37864    0.87171    1.000
    N3525    N        0.50135    0.36247    0.86965    1.000
    N3526    N        0.64101    0.38608    0.81673    1.000
    N3527    N        0.72565    0.37397    0.78181    1.000
    Si3528   Si       0.65688    0.36853    0.85339    1.000
    Si3529   Si       0.50059    0.40488    0.87264    1.000
    Si3530   Si       0.52016    0.39701    0.94252    1.000
    N3531    N        0.60580    0.38588    0.94755    1.000
    N3532    N        0.54526    0.36902    0.92306    1.000
    Si3533   Si       0.61317    0.39646    0.90551    1.000
    N3534    N        0.49276    0.38882    0.97682    1.000
    N3535    N        0.49403    0.41942    0.91453    1.000
    Si3536   Si       0.63779    0.37696    0.97854    1.000
    Si3537   Si       0.68150    0.37410    0.91958    1.000
    N3538    N        0.67684    0.38725    0.96193    1.000
    N3539    N        0.65478    0.39253    0.89118    1.000
    N3540    N        0.72382    0.38104    0.90580    1.000
    Si3541   Si       0.71212    0.38050    0.98561    1.000
    N3542    N        0.51471    0.44117    0.03637    1.000
    Si3543   Si       0.55266    0.46069    0.04904    1.000
    N3544    N        0.58260    0.45649    0.01941    1.000
    N3545    N        0.55669    0.44457    0.09054    1.000
    Si3546   Si       0.49097    0.44837    0.07117    1.000
    N3547    N        0.50116    0.47922    0.10120    1.000
    N3548    N        0.63498    0.44651    0.06970    1.000
    N3549    N        0.65195    0.46387    0.00771    1.000
    Si3550   Si       0.62605    0.43576    0.11107    1.000
    Si3551   Si       0.62116    0.44005    0.02994    1.000
    N3552    N        0.70489    0.47159    0.07272    1.000
    Si3553   Si       0.69240    0.47701    0.11401    1.000
    N3554    N        0.53461    0.45651    0.15738    1.000
    Si3555   Si       0.52908    0.46919    0.20214    1.000
    N3556    N        0.60152    0.44890    0.14411    1.000
    Si3557   Si       0.56973    0.42913    0.16520    1.000
    N3558    N        0.52607    0.44395    0.24272    1.000
    Si3559   Si       0.49120    0.46677    0.14710    1.000
    N3560    N        0.57225    0.48027    0.20061    1.000
    N3561    N        0.66669    0.44528    0.13245    1.000
    Si3562   Si       0.62186    0.43673    0.21987    1.000
    N3563    N        0.62321    0.47403    0.24323    1.000
    Si3564   Si       0.72510    0.42306    0.20878    1.000
    N3565    N        0.65991    0.42456    0.19879    1.000
    N3566    N        0.72064    0.46434    0.21756    1.000
    N3567    N        0.72707    0.48129    0.14000    1.000
    N3568    N        0.52904    0.45384    0.31704    1.000
    Si3569   Si       0.52693    0.47075    0.27647    1.000
    Si3570   Si       0.54294    0.42413    0.34449    1.000
    Si3571   Si       0.70428    0.42808    0.31110    1.000
    N3572    N        0.62972    0.44451    0.31306    1.000
    Si3573   Si       0.64926    0.45416    0.35199    1.000
    N3574    N        0.68866    0.45909    0.28219    1.000
    Si3575   Si       0.64680    0.46839    0.27949    1.000
    N3576    N        0.68400    0.43040    0.34910    1.000
    N3577    N        0.55856    0.44162    0.38016    1.000
    N3578    N        0.53648    0.45150    0.44653    1.000
    Si3579   Si       0.53758    0.46885    0.48532    1.000
    Si3580   Si       0.55701    0.42488    0.42025    1.000
    Si3581   Si       0.60591    0.44126    0.47860    1.000
    Si3582   Si       0.58483    0.47506    0.37812    1.000
    N3583    N        0.59617    0.42416    0.43915    1.000
    N3584    N        0.57881    0.46838    0.49834    1.000
    N3585    N        0.62407    0.45758    0.38617    1.000
    N3586    N        0.64354    0.45945    0.45971    1.000
    Si3587   Si       0.63485    0.43730    0.42314    1.000
    N3588    N        0.73351    0.48026    0.38202    1.000
    Si3589   Si       0.52652    0.45651    0.60626    1.000
    N3590    N        0.59671    0.45290    0.56955    1.000
    N3591    N        0.51243    0.44619    0.51129    1.000
    N3592    N        0.49145    0.47105    0.58487    1.000
    Si3593   Si       0.62973    0.44771    0.54199    1.000
    N3594    N        0.66488    0.44972    0.56682    1.000
    N3595    N        0.73039    0.46258    0.56272    1.000
    N3596    N        0.57695    0.47134    0.66691    1.000
    Si3597   Si       0.56299    0.42955    0.65796    1.000
    N3598    N        0.52197    0.44312    0.64898    1.000
    Si3599   Si       0.60241    0.47365    0.70422    1.000
    N3600    N        0.66116    0.41565    0.65437    1.000
    N3601    N        0.68607    0.46702    0.72114    1.000
    N3602    N        0.72795    0.43814    0.67134    1.000
    Si3603   Si       0.69686    0.43419    0.64140    1.000
    Si3604   Si       0.72470    0.45476    0.71118    1.000
    N3605    N        0.61829    0.43576    0.71897    1.000
    Si3606   Si       0.65871    0.43844    0.73836    1.000
    N3607    N        0.69827    0.47323    0.62254    1.000
    N3608    N        0.59895    0.43779    0.82474    1.000
    Si3609   Si       0.54978    0.46631    0.75882    1.000
    N3610    N        0.56454    0.42632    0.75951    1.000
    N3611    N        0.53726    0.42436    0.85953    1.000
    N3612    N        0.50870    0.46950    0.74699    1.000
    N3613    N        0.72464    0.44070    0.81882    1.000
    N3614    N        0.65147    0.45039    0.77846    1.000
    N3615    N        0.66307    0.44708    0.84997    1.000
    Si3616   Si       0.70060    0.46645    0.84172    1.000
    Si3617   Si       0.64025    0.43002    0.81656    1.000
    Si3618   Si       0.53550    0.46470    0.87288    1.000
    N3619    N        0.60258    0.46175    0.96016    1.000
    N3620    N        0.54705    0.46796    0.91692    1.000
    Si3621   Si       0.53022    0.46343    0.95579    1.000
    Si3622   Si       0.59205    0.47355    0.91868    1.000
    N3623    N        0.61007    0.43961    0.89518    1.000
    N3624    N        0.54474    0.42494    0.97012    1.000
    Si3625   Si       0.58763    0.42218    0.97648    1.000
    N3626    N        0.71601    0.47933    0.88068    1.000
    Si3627   Si       0.65269    0.43787    0.89063    1.000
    N3628    N        0.66256    0.46033    0.92675    1.000
    Si3629   Si       0.64632    0.47349    0.96553    1.000
    N3630    N        0.55230    0.50289    0.06437    1.000
    N3631    N        0.59334    0.52345    0.01537    1.000
    Si3632   Si       0.54467    0.48324    0.10672    1.000
    N3633    N        0.66227    0.51838    0.04104    1.000
    N3634    N        0.66839    0.51488    0.11332    1.000
    Si3635   Si       0.68238    0.48086    0.03610    1.000
    N3636    N        0.72142    0.48334    0.01723    1.000
    Si3637   Si       0.63618    0.53377    0.00861    1.000
    Si3638   Si       0.67489    0.53885    0.07732    1.000
    N3639    N        0.71866    0.54760    0.07709    1.000
    Si3640   Si       0.59425    0.48734    0.16421    1.000
    Si3641   Si       0.58882    0.49967    0.23807    1.000
    N3642    N        0.51891    0.51079    0.21425    1.000
    N3643    N        0.57075    0.50538    0.13301    1.000
    N3644    N        0.58301    0.54218    0.23429    1.000
    N3645    N        0.68763    0.51558    0.17867    1.000
    Si3646   Si       0.65888    0.53179    0.15219    1.000
    Si3647   Si       0.72322    0.49096    0.18147    1.000
    N3648    N        0.69386    0.52205    0.24350    1.000
    N3649    N        0.61989    0.52270    0.16513    1.000
    N3650    N        0.59431    0.49664    0.34098    1.000
    N3651    N        0.52968    0.51762    0.33795    1.000
    Si3652   Si       0.56669    0.51551    0.31365    1.000
    N3653    N        0.56161    0.49615    0.27486    1.000
    Si3654   Si       0.50265    0.48422    0.33173    1.000
    N3655    N        0.66791    0.49313    0.34951    1.000
    Si3656   Si       0.63531    0.51529    0.33329    1.000
    N3657    N        0.64297    0.51227    0.28965    1.000
    Si3658   Si       0.71298    0.48593    0.25532    1.000
    Si3659   Si       0.70498    0.50728    0.36542    1.000
    N3660    N        0.72969    0.53793    0.34500    1.000
    Si3661   Si       0.53235    0.49229    0.42781    1.000
    N3662    N        0.56792    0.50372    0.40704    1.000
    N3663    N        0.53489    0.51056    0.46914    1.000
    N3664    N        0.59641    0.53491    0.48900    1.000
    N3665    N        0.49258    0.50124    0.41899    1.000
    N3666    N        0.72280    0.50717    0.44865    1.000
    Si3667   Si       0.73179    0.50170    0.48944    1.000
    Si3668   Si       0.65973    0.49032    0.48752    1.000
    N3669    N        0.66205    0.52715    0.46620    1.000
    Si3670   Si       0.59460    0.50457    0.51927    1.000
    N3671    N        0.58239    0.52161    0.55793    1.000
    N3672    N        0.55222    0.49428    0.60872    1.000
    Si3673   Si       0.59222    0.49056    0.58973    1.000
    Si3674   Si       0.53541    0.53430    0.59666    1.000
    N3675    N        0.68291    0.51657    0.57365    1.000
    N3676    N        0.62777    0.49634    0.61323    1.000
    Si3677   Si       0.70559    0.49602    0.54596    1.000
    N3678    N        0.72816    0.52906    0.52409    1.000
    N3679    N        0.63340    0.48812    0.52169    1.000
    Si3680   Si       0.66572    0.48311    0.59682    1.000
    N3681    N        0.69751    0.48152    0.50649    1.000
    Si3682   Si       0.55568    0.50917    0.65356    1.000
    N3683    N        0.57375    0.49050    0.73307    1.000
    Si3684   Si       0.55135    0.52702    0.72634    1.000
    N3685    N        0.52553    0.51542    0.69223    1.000
    N3686    N        0.59059    0.53447    0.65727    1.000
    Si3687   Si       0.49133    0.49661    0.71818    1.000
    Si3688   Si       0.63058    0.51803    0.65028    1.000
    N3689    N        0.63545    0.49926    0.68923    1.000
    Si3690   Si       0.66982    0.50666    0.71607    1.000
    Si3691   Si       0.73840    0.53005    0.70410    1.000
    N3692    N        0.56725    0.49123    0.85954    1.000
    N3693    N        0.55404    0.48631    0.79692    1.000
    N3694    N        0.49968    0.48762    0.86397    1.000
    Si3695   Si       0.54174    0.52710    0.79642    1.000
    Si3696   Si       0.50699    0.53163    0.86726    1.000
    Si3697   Si       0.58749    0.48003    0.82306    1.000
    Si3698   Si       0.73139    0.51997    0.80508    1.000
    N3699    N        0.62282    0.50275    0.81571    1.000
    N3700    N        0.69320    0.50098    0.81506    1.000
    Si3701   Si       0.65745    0.49367    0.79103    1.000
    N3702    N        0.65911    0.51926    0.75601    1.000
    N3703    N        0.74233    0.53149    0.84752    1.000
    Si3704   Si       0.57889    0.52875    0.88111    1.000
    N3705    N        0.54619    0.49901    0.97593    1.000
    N3706    N        0.59911    0.51572    0.91508    1.000
    Si3707   Si       0.58645    0.48898    0.99181    1.000
    Si3708   Si       0.63760    0.53712    0.92838    1.000
    N3709    N        0.64065    0.51657    0.96930    1.000
    N3710    N        0.66912    0.52552    0.89724    1.000
    N3711    N        0.71179    0.50383    0.94766    1.000
    Si3712   Si       0.69059    0.49077    0.91295    1.000
    N3713    N        0.57970    0.57294    0.05885    1.000
    Si3714   Si       0.50034    0.58103    0.09548    1.000
    N3715    N        0.52401    0.55218    0.01763    1.000
    N3716    N        0.53731    0.58919    0.11537    1.000
    N3717    N        0.48856    0.54275    0.07678    1.000
    Si3718   Si       0.60612    0.59744    0.03217    1.000
    Si3719   Si       0.57473    0.59683    0.09419    1.000
    Si3720   Si       0.56101    0.53887    0.04109    1.000
    N3721    N        0.63585    0.57720    0.00853    1.000
    N3722    N        0.66051    0.57866    0.08090    1.000
    Si3723   Si       0.64277    0.59185    0.11841    1.000
    N3724    N        0.60349    0.57585    0.12191    1.000
    N3725    N        0.55562    0.55684    0.17268    1.000
    Si3726   Si       0.54519    0.54622    0.21311    1.000
    Si3727   Si       0.58660    0.54440    0.14711    1.000
    N3728    N        0.52139    0.57716    0.23354    1.000
    Si3729   Si       0.54510    0.59639    0.15793    1.000
    N3730    N        0.67026    0.57416    0.15012    1.000
    Si3731   Si       0.70634    0.54221    0.20732    1.000
    N3732    N        0.70881    0.58456    0.20717    1.000
    Si3733   Si       0.60162    0.57356    0.34020    1.000
    Si3734   Si       0.52882    0.55834    0.35841    1.000
    N3735    N        0.58470    0.55529    0.30501    1.000
    Si3736   Si       0.59682    0.57107    0.26570    1.000
    N3737    N        0.51869    0.58505    0.32616    1.000
    N3738    N        0.57164    0.56514    0.37151    1.000
    N3739    N        0.63880    0.55387    0.34984    1.000
    N3740    N        0.69825    0.56652    0.29159    1.000
    N3741    N        0.64000    0.57144    0.25487    1.000
    Si3742   Si       0.66682    0.54272    0.27006    1.000
    Si3743   Si       0.73187    0.54041    0.30266    1.000
    Si3744   Si       0.55650    0.54467    0.47654    1.000
    N3745    N        0.50190    0.56672    0.39147    1.000
    N3746    N        0.56877    0.56876    0.44148    1.000
    Si3747   Si       0.58094    0.54510    0.40725    1.000
    Si3748   Si       0.49912    0.59026    0.46984    1.000
    N3749    N        0.53080    0.57420    0.49495    1.000
    Si3750   Si       0.62391    0.55037    0.45812    1.000
    N3751    N        0.69876    0.58290    0.44959    1.000
    Si3752   Si       0.65348    0.56065    0.38938    1.000
    N3753    N        0.69200    0.54077    0.39773    1.000
    N3754    N        0.63218    0.59482    0.46056    1.000
    Si3755   Si       0.73120    0.55859    0.38421    1.000
    N3756    N        0.62370    0.54487    0.41513    1.000
    Si3757   Si       0.69383    0.54014    0.44065    1.000
    N3758    N        0.55614    0.57320    0.59282    1.000
    Si3759   Si       0.58958    0.56494    0.56847    1.000
    N3760    N        0.49640    0.54037    0.57821    1.000
    N3761    N        0.67487    0.58152    0.51715    1.000
    N3762    N        0.63052    0.56665    0.57967    1.000
    Si3763   Si       0.70970    0.56554    0.53738    1.000
    N3764    N        0.69280    0.58339    0.57606    1.000
    Si3765   Si       0.66700    0.54981    0.59573    1.000
    Si3766   Si       0.53773    0.58511    0.63952    1.000
    Si3767   Si       0.49913    0.54517    0.67413    1.000
    N3768    N        0.57289    0.56469    0.72097    1.000
    Si3769   Si       0.59201    0.57025    0.68212    1.000
    N3770    N        0.50758    0.58772    0.67322    1.000
    N3771    N        0.52689    0.54175    0.63824    1.000
    Si3772   Si       0.49352    0.56783    0.74742    1.000
    N3773    N        0.73092    0.58249    0.62960    1.000
    N3774    N        0.69623    0.53787    0.70050    1.000
    N3775    N        0.63338    0.57510    0.69375    1.000
    Si3776   Si       0.67467    0.56753    0.67617    1.000
    N3777    N        0.66244    0.54546    0.64059    1.000
    N3778    N        0.57867    0.55137    0.79083    1.000
    N3779    N        0.59971    0.55622    0.85604    1.000
    Si3780   Si       0.57066    0.58429    0.76215    1.000
    N3781    N        0.51637    0.54724    0.82658    1.000
    Si3782   Si       0.50620    0.58678    0.81191    1.000
    N3783    N        0.52493    0.53901    0.75789    1.000
    Si3784   Si       0.61324    0.54710    0.81542    1.000
    N3785    N        0.71716    0.55258    0.77774    1.000
    N3786    N        0.64910    0.57004    0.80248    1.000
    Si3787   Si       0.67511    0.55865    0.76889    1.000
    N3788    N        0.68539    0.58086    0.85753    1.000
    Si3789   Si       0.54361    0.58310    0.91593    1.000
    N3790    N        0.55178    0.57617    0.95848    1.000
    N3791    N        0.54019    0.54729    0.89308    1.000
    Si3792   Si       0.60903    0.59083    0.88256    1.000
    Si3793   Si       0.53056    0.54179    0.97493    1.000
    N3794    N        0.49156    0.53996    0.95937    1.000
    Si3795   Si       0.70305    0.54621    0.87550    1.000
    Si3796   Si       0.71871    0.54713    0.95226    1.000
    N3797    N        0.72820    0.55668    0.90964    1.000
    N3798    N        0.68530    0.57328    0.95713    1.000
    N3799    N        0.63266    0.57930    0.91767    1.000
    Si3800   Si       0.66706    0.59886    0.98728    1.000
    N3801    N        0.57582    0.64006    0.09392    1.000
    N3802    N        0.57852    0.61911    0.00886    1.000
    N3803    N        0.49402    0.60828    0.06490    1.000
    Si3804   Si       0.73152    0.64531    0.08171    1.000
    N3805    N        0.68951    0.64095    0.08576    1.000
    N3806    N        0.62901    0.62866    0.05086    1.000
    N3807    N        0.69117    0.61535    0.01952    1.000
    Si3808   Si       0.66963    0.61541    0.05768    1.000
    Si3809   Si       0.71953    0.64581    0.00508    1.000
    Si3810   Si       0.51422    0.61653    0.21802    1.000
    N3811    N        0.57758    0.62057    0.17410    1.000
    N3812    N        0.50766    0.61208    0.17579    1.000
    N3813    N        0.53706    0.64953    0.22645    1.000
    Si3814   Si       0.68292    0.60585    0.17843    1.000
    N3815    N        0.71813    0.63122    0.16519    1.000
    N3816    N        0.64645    0.62263    0.19849    1.000
    N3817    N        0.63932    0.63262    0.13495    1.000
    Si3818   Si       0.63888    0.61206    0.24205    1.000
    Si3819   Si       0.61714    0.63909    0.17195    1.000
    Si3820   Si       0.59566    0.63874    0.30078    1.000
    Si3821   Si       0.52204    0.62852    0.32842    1.000
    N3822    N        0.60016    0.61490    0.26532    1.000
    N3823    N        0.55261    0.64468    0.30086    1.000
    N3824    N        0.52960    0.63232    0.37162    1.000
    N3825    N        0.61444    0.61419    0.33461    1.000
    Si3826   Si       0.65105    0.62537    0.35695    1.000
    N3827    N        0.66924    0.63470    0.26726    1.000
    N3828    N        0.69055    0.61608    0.33586    1.000
    Si3829   Si       0.69557    0.60930    0.29223    1.000
    Si3830   Si       0.73244    0.62650    0.35217    1.000
    N3831    N        0.73702    0.62631    0.28667    1.000
    Si3832   Si       0.55882    0.61012    0.44886    1.000
    N3833    N        0.58259    0.63538    0.42215    1.000
    N3834    N        0.56339    0.63110    0.48713    1.000
    N3835    N        0.51667    0.61083    0.43619    1.000
    Si3836   Si       0.49918    0.61025    0.39647    1.000
    Si3837   Si       0.54697    0.65886    0.40216    1.000
    N3838    N        0.68204    0.64505    0.48615    1.000
    N3839    N        0.64577    0.60270    0.39469    1.000
    Si3840   Si       0.67141    0.60270    0.47860    1.000
    Si3841   Si       0.72776    0.60746    0.43087    1.000
    N3842    N        0.71914    0.65232    0.42965    1.000
    N3843    N        0.73175    0.60040    0.38835    1.000
    Si3844   Si       0.62423    0.62144    0.42798    1.000
    N3845    N        0.52273    0.62389    0.54772    1.000
    Si3846   Si       0.54415    0.61613    0.58490    1.000
    N3847    N        0.58440    0.63538    0.59392    1.000
    Si3848   Si       0.55038    0.60573    0.51738    1.000
    Si3849   Si       0.60182    0.63848    0.55324    1.000
    N3850    N        0.58664    0.59981    0.54022    1.000
    N3851    N        0.52187    0.62335    0.61924    1.000
    N3852    N        0.64564    0.63575    0.54711    1.000
    Si3853   Si       0.72406    0.60726    0.59502    1.000
    N3854    N        0.71436    0.64959    0.55374    1.000
    Si3855   Si       0.65514    0.59511    0.55757    1.000
    N3856    N        0.49615    0.60907    0.73256    1.000
    Si3857   Si       0.59733    0.62951    0.63446    1.000
    N3858    N        0.57533    0.59826    0.65544    1.000
    N3859    N        0.63962    0.62338    0.63390    1.000
    N3860    N        0.71397    0.64211    0.62157    1.000
    Si3861   Si       0.70524    0.61697    0.72248    1.000
    N3862    N        0.63601    0.64110    0.70070    1.000
    Si3863   Si       0.66364    0.64028    0.66545    1.000
    Si3864   Si       0.63698    0.60546    0.72540    1.000
    N3865    N        0.69402    0.60870    0.67960    1.000
    Si3866   Si       0.72896    0.61824    0.65593    1.000
    N3867    N        0.67526    0.59441    0.74296    1.000
    N3868    N        0.53274    0.64314    0.84492    1.000
    N3869    N        0.53755    0.60618    0.78595    1.000
    Si3870   Si       0.54133    0.64814    0.80290    1.000
    N3871    N        0.60530    0.61046    0.75322    1.000
    N3872    N        0.58688    0.64887    0.80457    1.000
    N3873    N        0.62608    0.61647    0.85231    1.000
    N3874    N        0.68273    0.63827    0.82455    1.000
    Si3875   Si       0.70730    0.62372    0.86063    1.000
    Si3876   Si       0.65785    0.60094    0.82947    1.000
    N3877    N        0.50158    0.61333    0.98939    1.000
    Si3878   Si       0.54441    0.61458    0.98063    1.000
    N3879    N        0.57286    0.60891    0.89714    1.000
    Si3880   Si       0.55509    0.64684    0.88264    1.000
    N3881    N        0.50937    0.60829    0.92063    1.000
    N3882    N        0.73984    0.62363    0.96958    1.000
    N3883    N        0.65658    0.62863    0.95797    1.000
    Si3884   Si       0.66909    0.60168    0.92742    1.000
    Si3885   Si       0.73102    0.63922    0.92942    1.000
    N3886    N        0.69820    0.62284    0.90522    1.000
    Si3887   Si       0.54733    0.67026    0.10894    1.000
    N3888    N        0.58503    0.68140    0.03657    1.000
    N3889    N        0.51127    0.66779    0.08711    1.000
    Si3890   Si       0.60582    0.66135    0.06893    1.000
    Si3891   Si       0.49839    0.69122    0.05164    1.000
    N3892    N        0.57079    0.70692    0.09385    1.000
    N3893    N        0.52630    0.70983    0.02620    1.000
    Si3894   Si       0.58505    0.66075    0.99872    1.000
    N3895    N        0.63655    0.68652    0.08739    1.000
    Si3896   Si       0.66165    0.66207    0.11283    1.000
    Si3897   Si       0.56014    0.65688    0.18743    1.000
    N3898    N        0.54528    0.67867    0.15156    1.000
    N3899    N        0.59954    0.67628    0.18901    1.000
    Si3900   Si       0.61016    0.70328    0.22376    1.000
    Si3901   Si       0.72682    0.67019    0.14680    1.000
    N3902    N        0.64892    0.69657    0.23962    1.000
    N3903    N        0.68541    0.68415    0.14015    1.000
    N3904    N        0.71643    0.68278    0.24194    1.000
    Si3905   Si       0.71807    0.71234    0.20948    1.000
    Si3906   Si       0.54695    0.66879    0.26470    1.000
    N3907    N        0.51487    0.69760    0.27565    1.000
    N3908    N        0.57990    0.69528    0.25600    1.000
    N3909    N        0.49116    0.69122    0.34398    1.000
    N3910    N        0.61736    0.67643    0.30199    1.000
    Si3911   Si       0.71412    0.70527    0.33317    1.000
    Si3912   Si       0.64650    0.69429    0.32746    1.000
    N3913    N        0.68331    0.69405    0.30370    1.000
    Si3914   Si       0.67904    0.67709    0.26337    1.000
    N3915    N        0.72687    0.66955    0.35697    1.000
    N3916    N        0.65016    0.66925    0.36290    1.000
    N3917    N        0.57211    0.68880    0.38881    1.000
    N3918    N        0.58711    0.69585    0.46124    1.000
    N3919    N        0.51138    0.67765    0.41768    1.000
    Si3920   Si       0.51202    0.70188    0.45317    1.000
    Si3921   Si       0.60178    0.68315    0.42240    1.000
    Si3922   Si       0.56789    0.67473    0.49529    1.000
    N3923    N        0.52608    0.68826    0.49195    1.000
    Si3924   Si       0.68232    0.66745    0.44920    1.000
    N3925    N        0.64356    0.65982    0.43315    1.000
    N3926    N        0.72473    0.71304    0.48229    1.000
    N3927    N        0.68527    0.70735    0.42794    1.000
    Si3928   Si       0.66185    0.69988    0.39320    1.000
    N3929    N        0.58603    0.67549    0.53487    1.000
    Si3930   Si       0.50327    0.70492    0.52497    1.000
    Si3931   Si       0.57602    0.71577    0.54915    1.000
    N3932    N        0.66849    0.69907    0.52589    1.000
    Si3933   Si       0.71473    0.67318    0.59072    1.000
    N3934    N        0.68059    0.70057    0.59611    1.000
    Si3935   Si       0.67821    0.65639    0.52752    1.000
    N3936    N        0.52465    0.69049    0.62303    1.000
    N3937    N        0.49183    0.65987    0.67741    1.000
    Si3938   Si       0.56746    0.69738    0.63229    1.000
    Si3939   Si       0.60338    0.67000    0.69589    1.000
    N3940    N        0.58830    0.66752    0.65635    1.000
    N3941    N        0.57919    0.67233    0.73341    1.000
    Si3942   Si       0.49715    0.65758    0.63302    1.000
    N3943    N        0.51314    0.70794    0.73299    1.000
    Si3944   Si       0.48942    0.69993    0.69656    1.000
    Si3945   Si       0.70559    0.69070    0.69456    1.000
    Si3946   Si       0.65039    0.70232    0.73735    1.000
    N3947    N        0.70580    0.66093    0.72573    1.000
    N3948    N        0.67653    0.68273    0.66538    1.000
    N3949    N        0.62318    0.70845    0.70220    1.000
    N3950    N        0.54045    0.69137    0.78995    1.000
    Si3951   Si       0.49900    0.69790    0.80475    1.000
    Si3952   Si       0.61104    0.65560    0.83992    1.000
    Si3953   Si       0.55491    0.70529    0.74860    1.000
    N3954    N        0.49043    0.69615    0.84594    1.000
    Si3955   Si       0.60082    0.65219    0.76499    1.000
    N3956    N        0.64221    0.66963    0.76494    1.000
    Si3957   Si       0.66587    0.67208    0.80057    1.000
    N3958    N        0.63730    0.68944    0.83088    1.000
    N3959    N        0.69721    0.69725    0.78751    1.000
    N3960    N        0.73157    0.66715    0.85875    1.000
    Si3961   Si       0.72684    0.67776    0.76118    1.000
    N3962    N        0.59069    0.66996    0.87517    1.000
    Si3963   Si       0.54405    0.69089    0.94327    1.000
    N3964    N        0.53189    0.67532    0.90432    1.000
    Si3965   Si       0.58560    0.71117    0.88644    1.000
    N3966    N        0.50962    0.71040    0.96017    1.000
    Si3967   Si       0.51395    0.71166    0.87972    1.000
    N3968    N        0.55192    0.65727    0.96925    1.000
    N3969    N        0.72834    0.68159    0.92702    1.000
    Si3970   Si       0.65905    0.67118    0.96306    1.000
    N3971    N        0.65810    0.70596    0.93470    1.000
    Si3972   Si       0.72494    0.69768    0.88785    1.000
    N3973    N        0.61747    0.67872    0.97600    1.000
    Si3974   Si       0.72295    0.70553    0.96346    1.000
    N3975    N        0.69585    0.67658    0.98590    1.000
    N3976    N        0.57281    0.75990    0.03977    1.000
    Si3977   Si       0.60141    0.72570    0.11784    1.000
    Si3978   Si       0.56531    0.71578    0.05030    1.000
    N3979    N        0.48624    0.76263    0.01219    1.000
    Si3980   Si       0.51761    0.73883    0.99325    1.000
    N3981    N        0.62032    0.75242    0.08589    1.000
    Si3982   Si       0.65383    0.72815    0.07363    1.000
    N3983    N        0.68652    0.74223    0.10180    1.000
    N3984    N        0.66840    0.73326    0.03344    1.000
    Si3985   Si       0.71265    0.76875    0.08259    1.000
    Si3986   Si       0.68496    0.77010    0.01826    1.000
    N3987    N        0.72621    0.77315    0.00851    1.000
    N3988    N        0.51803    0.74430    0.12336    1.000
    Si3989   Si       0.53713    0.72292    0.15358    1.000
    Si3990   Si       0.51016    0.76282    0.21865    1.000
    N3991    N        0.51512    0.72988    0.19156    1.000
    N3992    N        0.57700    0.74091    0.15123    1.000
    N3993    N        0.60503    0.74528    0.21276    1.000
    Si3994   Si       0.61199    0.75556    0.17165    1.000
    Si3995   Si       0.59223    0.77484    0.24083    1.000
    N3996    N        0.71785    0.75243    0.23054    1.000
    N3997    N        0.63631    0.73133    0.14512    1.000
    Si3998   Si       0.67890    0.72586    0.14073    1.000
    N3999    N        0.69389    0.73984    0.17787    1.000
    N4000    N        0.49887    0.75440    0.31237    1.000
    N4001    N        0.60040    0.75600    0.27970    1.000
    Si4002   Si       0.58050    0.72339    0.36447    1.000
    N4003    N        0.55927    0.71803    0.32515    1.000
    Si4004   Si       0.59152    0.71295    0.29482    1.000
    Si4005   Si       0.51680    0.71422    0.31651    1.000
    Si4006   Si       0.61206    0.77060    0.31879    1.000
    Si4007   Si       0.49057    0.77179    0.35305    1.000
    N4008    N        0.61643    0.72888    0.33731    1.000
    Si4009   Si       0.67510    0.76512    0.36135    1.000
    N4010    N        0.68311    0.72288    0.36124    1.000
    N4011    N        0.60424    0.77003    0.44963    1.000
    N4012    N        0.57872    0.76327    0.38112    1.000
    Si4013   Si       0.57814    0.73747    0.46833    1.000
    N4014    N        0.53738    0.73849    0.45085    1.000
    N4015    N        0.49465    0.75442    0.39657    1.000
    Si4016   Si       0.51092    0.76778    0.43218    1.000
    Si4017   Si       0.61455    0.76092    0.40984    1.000
    Si4018   Si       0.66595    0.77097    0.44933    1.000
    N4019    N        0.65928    0.75002    0.48592    1.000
    Si4020   Si       0.71959    0.73054    0.44082    1.000
    N4021    N        0.62395    0.71847    0.40693    1.000
    N4022    N        0.71048    0.77243    0.45179    1.000
    N4023    N        0.58679    0.73904    0.51212    1.000
    Si4024   Si       0.51505    0.72302    0.59541    1.000
    N4025    N        0.52377    0.76058    0.61581    1.000
    N4026    N        0.53189    0.71869    0.55556    1.000
    N4027    N        0.58427    0.71594    0.59383    1.000
    Si4028   Si       0.61307    0.75014    0.59793    1.000
    Si4029   Si       0.69289    0.72890    0.50514    1.000
    N4030    N        0.63346    0.74468    0.56063    1.000
    N4031    N        0.70296    0.75075    0.54207    1.000
    Si4032   Si       0.62717    0.75864    0.51748    1.000
    Si4033   Si       0.67135    0.72360    0.56174    1.000
    Si4034   Si       0.61072    0.73867    0.67414    1.000
    Si4035   Si       0.53145    0.75339    0.65836    1.000
    N4036    N        0.56793    0.72978    0.66286    1.000
    N4037    N        0.49440    0.73832    0.67587    1.000
    N4038    N        0.56716    0.74739    0.74873    1.000
    N4039    N        0.68686    0.72105    0.72120    1.000
    Si4040   Si       0.67035    0.71475    0.63710    1.000
    Si4041   Si       0.67270    0.76021    0.73710    1.000
    N4042    N        0.63087    0.73696    0.63559    1.000
    N4043    N        0.70334    0.74567    0.64345    1.000
    N4044    N        0.59631    0.74091    0.81412    1.000
    Si4045   Si       0.55314    0.74423    0.82311    1.000
    Si4046   Si       0.60075    0.75812    0.77537    1.000
    N4047    N        0.51325    0.74752    0.79935    1.000
    N4048    N        0.55218    0.72327    0.86096    1.000
    Si4049   Si       0.49672    0.73982    0.75870    1.000
    Si4050   Si       0.70169    0.75886    0.84816    1.000
    Si4051   Si       0.63057    0.72971    0.83955    1.000
    Si4052   Si       0.71737    0.73707    0.78382    1.000
    N4053    N        0.66052    0.76381    0.83272    1.000
    N4054    N        0.73227    0.74087    0.82347    1.000
    N4055    N        0.63840    0.74057    0.75636    1.000
    N4056    N        0.69908    0.77177    0.76906    1.000
    N4057    N        0.50681    0.75498    0.88863    1.000
    Si4058   Si       0.57166    0.75892    0.93879    1.000
    N4059    N        0.55070    0.76428    0.97563    1.000
    N4060    N        0.57621    0.71601    0.93055    1.000
    Si4061   Si       0.61663    0.71463    0.95067    1.000
    N4062    N        0.62406    0.73074    0.88254    1.000
    N4063    N        0.61404    0.75788    0.95359    1.000
    Si4064   Si       0.66152    0.73589    0.90454    1.000
    N4065    N        0.69497    0.72557    0.87583    1.000
    N4066    N        0.73303    0.74362    0.94567    1.000
    N4067    N        0.50634    0.78897    0.07533    1.000
    Si4068   Si       0.56625    0.78739    0.00857    1.000
    N4069    N        0.54037    0.82164    0.02095    1.000
    Si4070   Si       0.59563    0.78064    0.06933    1.000
    Si4071   Si       0.52850    0.78460    0.11227    1.000
    N4072    N        0.57032    0.79532    0.10166    1.000
    Si4073   Si       0.51532    0.82666    0.05651    1.000
    N4074    N        0.60290    0.80620    0.99649    1.000
    N4075    N        0.61706    0.81573    0.06025    1.000
    N4076    N        0.68502    0.79481    0.05622    1.000
    N4077    N        0.74152    0.79672    0.10014    1.000
    Si4078   Si       0.66051    0.83003    0.05684    1.000
    Si4079   Si       0.50563    0.82665    0.17532    1.000
    N4080    N        0.54666    0.78065    0.23764    1.000
    N4081    N        0.53369    0.81149    0.14776    1.000
    Si4082   Si       0.57669    0.81545    0.14074    1.000
    N4083    N        0.61119    0.81207    0.22846    1.000
    N4084    N        0.61103    0.79830    0.16409    1.000
    Si4085   Si       0.53026    0.82058    0.24687    1.000
    Si4086   Si       0.63704    0.81783    0.19446    1.000
    Si4087   Si       0.70849    0.77727    0.19584    1.000
    N4088    N        0.67795    0.80650    0.20605    1.000
    N4089    N        0.58206    0.80138    0.32793    1.000
    N4090    N        0.51889    0.80495    0.35706    1.000
    N4091    N        0.49225    0.81488    0.26896    1.000
    Si4092   Si       0.56206    0.80139    0.36564    1.000
    Si4093   Si       0.71437    0.82414    0.35608    1.000
    N4094    N        0.65164    0.78729    0.33248    1.000
    N4095    N        0.71533    0.78094    0.35420    1.000
    Si4096   Si       0.50239    0.82498    0.46701    1.000
    N4097    N        0.53257    0.80550    0.43932    1.000
    Si4098   Si       0.61284    0.80662    0.46968    1.000
    N4099    N        0.65563    0.77614    0.40151    1.000
    N4100    N        0.65303    0.81428    0.44979    1.000
    Si4101   Si       0.72586    0.80543    0.47668    1.000
    Si4102   Si       0.66008    0.82088    0.40643    1.000
    N4103    N        0.70054    0.82822    0.39586    1.000
    Si4104   Si       0.51508    0.79932    0.59953    1.000
    N4105    N        0.59916    0.79091    0.59497    1.000
    N4106    N        0.54257    0.82140    0.57257    1.000
    Si4107   Si       0.58441    0.82843    0.58309    1.000
    Si4108   Si       0.73678    0.78021    0.54550    1.000
    N4109    N        0.62165    0.80255    0.51112    1.000
    N4110    N        0.72105    0.81386    0.56959    1.000
    N4111    N        0.69912    0.83002    0.49957    1.000
    Si4112   Si       0.72190    0.83048    0.60988    1.000
    Si4113   Si       0.51003    0.81942    0.67626    1.000
    N4114    N        0.57235    0.81963    0.73666    1.000
    Si4115   Si       0.56670    0.78009    0.71922    1.000
    N4116    N        0.53585    0.78495    0.68689    1.000
    N4117    N        0.60513    0.77534    0.69760    1.000
    N4118    N        0.69363    0.82084    0.64204    1.000
    N4119    N        0.73606    0.79119    0.68985    1.000
    Si4120   Si       0.63367    0.80728    0.69821    1.000
    Si4121   Si       0.69812    0.78589    0.66659    1.000
    N4122    N        0.66920    0.78301    0.70000    1.000
    Si4123   Si       0.50440    0.78780    0.81747    1.000
    N4124    N        0.54529    0.78612    0.83645    1.000
    N4125    N        0.49899    0.82111    0.78724    1.000
    N4126    N        0.61333    0.79743    0.78856    1.000
    Si4127   Si       0.48608    0.81721    0.74605    1.000
    N4128    N        0.61916    0.81475    0.85962    1.000
    N4129    N        0.67523    0.82505    0.81436    1.000
    Si4130   Si       0.70313    0.81245    0.78268    1.000
    Si4131   Si       0.63912    0.80303    0.82422    1.000
    N4132    N        0.72181    0.79855    0.86295    1.000
    Si4133   Si       0.53695    0.78672    0.87903    1.000
    Si4134   Si       0.59891    0.81902    0.89805    1.000
    N4135    N        0.57301    0.78660    0.90693    1.000
    N4136    N        0.51718    0.82451    0.88993    1.000
    Si4137   Si       0.48585    0.82649    0.93862    1.000
    N4138    N        0.62666    0.82647    0.93387    1.000
    N4139    N        0.67098    0.78759    0.98047    1.000
    Si4140   Si       0.63019    0.79629    0.96394    1.000
    Si4141   Si       0.70162    0.80675    0.90009    1.000
    Si4142   Si       0.70496    0.77609    0.95243    1.000
    N4143    N        0.72516    0.81510    0.93743    1.000
    N4144    N        0.67741    0.77486    0.91610    1.000
    N4145    N        0.51970    0.85993    0.08458    1.000
    N4146    N        0.58641    0.87329    0.06352    1.000
    Si4147   Si       0.60430    0.84495    0.02351    1.000
    N4148    N        0.51132    0.88262    0.00324    1.000
    Si4149   Si       0.61266    0.85018    0.08935    1.000
    Si4150   Si       0.72479    0.87633    0.02792    1.000
    N4151    N        0.65591    0.85416    0.09256    1.000
    N4152    N        0.71826    0.85716    0.06575    1.000
    Si4153   Si       0.69411    0.87209    0.09742    1.000
    N4154    N        0.64696    0.85428    0.02231    1.000
    N4155    N        0.72324    0.84507    0.99676    1.000
    Si4156   Si       0.54034    0.88060    0.20171    1.000
    N4157    N        0.59562    0.85261    0.12868    1.000
    Si4158   Si       0.59034    0.85088    0.23259    1.000
    N4159    N        0.51930    0.84510    0.21372    1.000
    N4160    N        0.58108    0.86279    0.19245    1.000
    Si4161   Si       0.61155    0.87687    0.16333    1.000
    Si4162   Si       0.68717    0.87671    0.17260    1.000
    N4163    N        0.61599    0.88167    0.24543    1.000
    Si4164   Si       0.70098    0.83322    0.23207    1.000
    N4165    N        0.71005    0.86394    0.13795    1.000
    N4166    N        0.64793    0.85735    0.17645    1.000
    N4167    N        0.71022    0.87007    0.20844    1.000
    N4168    N        0.54588    0.85933    0.32858    1.000
    Si4169   Si       0.50749    0.84638    0.34799    1.000
    N4170    N        0.55971    0.84489    0.26686    1.000
    Si4171   Si       0.57629    0.83776    0.30781    1.000
    N4172    N        0.49529    0.88771    0.28390    1.000
    Si4173   Si       0.53900    0.88628    0.27612    1.000
    N4174    N        0.61952    0.84871    0.30540    1.000
    Si4175   Si       0.70104    0.87460    0.29653    1.000
    N4176    N        0.68871    0.84687    0.32780    1.000
    Si4177   Si       0.64160    0.86576    0.27548    1.000
    N4178    N        0.67941    0.84957    0.26501    1.000
    Si4179   Si       0.64921    0.83134    0.33385    1.000
    N4180    N        0.57325    0.83566    0.39117    1.000
    N4181    N        0.49784    0.88099    0.37532    1.000
    Si4182   Si       0.60651    0.87778    0.46298    1.000
    N4183    N        0.52352    0.86777    0.43963    1.000
    Si4184   Si       0.55539    0.83727    0.42931    1.000
    Si4185   Si       0.60561    0.86603    0.38669    1.000
    N4186    N        0.58691    0.83903    0.45706    1.000
    N4187    N        0.62023    0.88413    0.42278    1.000
    N4188    N        0.68653    0.87689    0.44754    1.000
    N4189    N        0.63904    0.84182    0.37420    1.000
    Si4190   Si       0.71724    0.85911    0.42138    1.000
    N4191    N        0.63671    0.86767    0.49431    1.000
    Si4192   Si       0.66910    0.84919    0.47462    1.000
    Si4193   Si       0.53117    0.84801    0.54130    1.000
    N4194    N        0.59610    0.85300    0.54929    1.000
    N4195    N        0.57845    0.85589    0.61526    1.000
    N4196    N        0.49136    0.86060    0.55584    1.000
    N4197    N        0.54329    0.89222    0.54434    1.000
    N4198    N        0.52188    0.82907    0.50437    1.000
    N4199    N        0.66518    0.85240    0.55431    1.000
    N4200    N        0.71147    0.86991    0.59856    1.000
    Si4201   Si       0.70615    0.84403    0.54227    1.000
    Si4202   Si       0.67097    0.87994    0.58745    1.000
    Si4203   Si       0.63130    0.84284    0.52917    1.000
    N4204    N        0.73291    0.87952    0.53798    1.000
    Si4205   Si       0.53868    0.86027    0.63262    1.000
    N4206    N        0.55539    0.85493    0.67378    1.000
    Si4207   Si       0.55088    0.85329    0.71739    1.000
    Si4208   Si       0.59405    0.86214    0.65500    1.000
    N4209    N        0.50905    0.83970    0.71713    1.000
    N4210    N        0.56995    0.88953    0.73218    1.000
    N4211    N        0.51313    0.82583    0.63517    1.000
    N4212    N        0.62750    0.83920    0.66838    1.000
    N4213    N        0.64025    0.83107    0.73339    1.000
    N4214    N        0.70775    0.83376    0.74126    1.000
    Si4215   Si       0.66665    0.85523    0.65501    1.000
    N4216    N        0.68053    0.87582    0.69071    1.000
    N4217    N        0.64811    0.88466    0.62761    1.000
    Si4218   Si       0.67254    0.85910    0.73047    1.000
    Si4219   Si       0.49677    0.86253    0.80430    1.000
    N4220    N        0.60871    0.86797    0.78312    1.000
    N4221    N        0.53295    0.88328    0.79414    1.000
    Si4222   Si       0.60771    0.82996    0.76182    1.000
    Si4223   Si       0.68062    0.85340    0.84992    1.000
    N4224    N        0.72171    0.86837    0.84114    1.000
    N4225    N        0.65350    0.88558    0.83758    1.000
    Si4226   Si       0.53547    0.85771    0.90882    1.000
    N4227    N        0.57796    0.85611    0.90002    1.000
    N4228    N        0.52702    0.84561    0.94937    1.000
    Si4229   Si       0.53906    0.85203    0.99090    1.000
    N4230    N        0.57946    0.86909    0.99608    1.000
    Si4231   Si       0.65487    0.85702    0.92302    1.000
    Si4232   Si       0.71656    0.85372    0.95511    1.000
    N4233    N        0.67852    0.84211    0.89128    1.000
    N4234    N        0.67572    0.87014    0.95835    1.000
    Si4235   Si       0.66376    0.88805    0.99712    1.000
    N4236    N        0.51654    0.91744    0.06259    1.000
    Si4237   Si       0.52472    0.91886    0.01882    1.000
    N4238    N        0.56657    0.93176    0.01151    1.000
    N4239    N        0.55683    0.91808    0.11617    1.000
    N4240    N        0.60698    0.94787    0.08026    1.000
    Si4241   Si       0.59413    0.94005    0.12251    1.000
    Si4242   Si       0.55171    0.88957    0.08263    1.000
    Si4243   Si       0.70117    0.93771    0.05496    1.000
    N4244    N        0.70375    0.91493    0.09302    1.000
    N4245    N        0.69150    0.90605    0.02557    1.000
    N4246    N        0.49294    0.94065    0.23756    1.000
    N4247    N        0.54728    0.90477    0.23737    1.000
    Si4248   Si       0.52167    0.93049    0.13850    1.000
    N4249    N        0.52033    0.90167    0.17077    1.000
    Si4250   Si       0.53598    0.94701    0.23787    1.000
    N4251    N        0.68691    0.91922    0.16212    1.000
    Si4252   Si       0.65192    0.94121    0.17288    1.000
    N4253    N        0.71986    0.93330    0.24764    1.000
    Si4254   Si       0.71776    0.92871    0.13166    1.000
    Si4255   Si       0.73177    0.89325    0.23787    1.000
    N4256    N        0.65489    0.93714    0.21627    1.000
    N4257    N        0.61645    0.91759    0.15457    1.000
    Si4258   Si       0.63232    0.92157    0.24982    1.000
    N4259    N        0.56196    0.91495    0.30224    1.000
    Si4260   Si       0.55857    0.89943    0.34182    1.000
    N4261    N        0.59922    0.89699    0.35665    1.000
    Si4262   Si       0.61837    0.93789    0.35713    1.000
    Si4263   Si       0.67887    0.93498    0.30926    1.000
    N4264    N        0.71618    0.91212    0.31875    1.000
    N4265    N        0.66141    0.93428    0.35025    1.000
    N4266    N        0.65886    0.90451    0.28650    1.000
    N4267    N        0.54282    0.92667    0.37254    1.000
    N4268    N        0.50249    0.91841    0.48611    1.000
    Si4269   Si       0.50001    0.92254    0.38771    1.000
    Si4270   Si       0.53208    0.90472    0.45903    1.000
    N4271    N        0.54831    0.94149    0.43950    1.000
    N4272    N        0.57167    0.89796    0.48080    1.000
    N4273    N        0.68376    0.93786    0.48845    1.000
    N4274    N        0.71863    0.89045    0.38843    1.000
    Si4275   Si       0.69429    0.91954    0.45133    1.000
    N4276    N        0.73635    0.91753    0.46958    1.000
    N4277    N        0.61978    0.94022    0.46548    1.000
    N4278    N        0.67782    0.94001    0.41631    1.000
    Si4279   Si       0.69616    0.92736    0.37833    1.000
    Si4280   Si       0.57694    0.90943    0.52440    1.000
    Si4281   Si       0.50828    0.89703    0.57023    1.000
    N4282    N        0.52028    0.89605    0.61379    1.000
    N4283    N        0.49710    0.93421    0.55457    1.000
    N4284    N        0.61854    0.92633    0.53189    1.000
    N4285    N        0.67035    0.92141    0.57746    1.000
    Si4286   Si       0.64281    0.94432    0.50089    1.000
    N4287    N        0.59689    0.90425    0.66509    1.000
    Si4288   Si       0.49846    0.92818    0.63433    1.000
    Si4289   Si       0.58072    0.91963    0.70295    1.000
    Si4290   Si       0.49847    0.93522    0.70676    1.000
    N4291    N        0.54147    0.93759    0.69998    1.000
    Si4292   Si       0.72102    0.89354    0.68794    1.000
    Si4293   Si       0.62294    0.92110    0.63597    1.000
    N4294    N        0.72911    0.91633    0.72513    1.000
    N4295    N        0.72105    0.92641    0.66073    1.000
    Si4296   Si       0.53200    0.92705    0.80379    1.000
    N4297    N        0.53295    0.93309    0.84606    1.000
    N4298    N        0.57238    0.93368    0.78730    1.000
    Si4299   Si       0.49995    0.90993    0.86421    1.000
    Si4300   Si       0.57330    0.89238    0.77451    1.000
    N4301    N        0.59862    0.91998    0.86847    1.000
    N4302    N        0.70900    0.92849    0.80062    1.000
    N4303    N        0.63807    0.93728    0.79454    1.000
    Si4304   Si       0.70027    0.92273    0.75624    1.000
    Si4305   Si       0.73670    0.89804    0.81241    1.000
    N4306    N        0.66897    0.94930    0.86100    1.000
    Si4307   Si       0.64307    0.88937    0.79619    1.000
    Si4308   Si       0.64278    0.91555    0.86881    1.000
    N4309    N        0.67061    0.88879    0.76178    1.000
    Si4310   Si       0.53776    0.93033    0.92578    1.000
    Si4311   Si       0.58842    0.90754    0.98178    1.000
    N4312    N        0.51887    0.89819    0.90210    1.000
    N4313    N        0.57578    0.91181    0.94017    1.000
    Si4314   Si       0.59307    0.89546    0.90483    1.000
    N4315    N        0.63169    0.91330    0.98129    1.000
    Si4316   Si       0.72571    0.93032    0.94155    1.000
    N4317    N        0.73220    0.93967    0.89835    1.000
    N4318    N        0.63735    0.89367    0.90921    1.000
    N4319    N        0.68526    0.94212    0.94575    1.000
    Si4320   Si       0.64715    0.92277    0.94220    1.000
    Si4321   Si       0.51640    0.96412    0.06030    1.000
    N4322    N        0.55361    0.98471    0.05761    1.000
    N4323    N        0.50861    0.96032    0.01816    1.000
    Si4324   Si       0.58434    0.95568    0.04199    1.000
    N4325    N        0.61502    0.98371    0.02624    1.000
    Si4326   Si       0.63391    0.98273    0.06581    1.000
    N4327    N        0.67521    0.97057    0.06987    1.000
    Si4328   Si       0.68558    0.98479    0.11076    1.000
    N4329    N        0.51755    0.96826    0.15483    1.000
    N4330    N        0.55996    0.96741    0.20768    1.000
    N4331    N        0.58536    0.97782    0.14175    1.000
    Si4332   Si       0.55219    0.98821    0.17022    1.000
    Si4333   Si       0.59621    0.98196    0.22607    1.000
    N4334    N        0.65382    0.97329    0.13892    1.000
    N4335    N        0.72256    0.97078    0.12414    1.000
    N4336    N        0.69412    0.99562    0.22005    1.000
    N4337    N        0.62647    0.99582    0.19668    1.000
    Si4338   Si       0.68685    0.95804    0.23960    1.000
    Si4339   Si       0.62258    0.99892    0.15333    1.000
    Si4340   Si       0.50411    0.99220    0.29068    1.000
    N4341    N        0.54110    0.97071    0.27623    1.000
    N4342    N        0.60313    0.96484    0.32675    1.000
    N4343    N        0.60492    0.95349    0.25629    1.000
    Si4344   Si       0.57763    0.95319    0.29288    1.000
    Si4345   Si       0.50480    0.99774    0.37157    1.000
    N4346    N        0.51772    0.00734    0.32890    1.000
    Si4347   Si       0.61618    0.00593    0.33024    1.000
    N4348    N        0.67457    0.96912    0.28065    1.000
    N4349    N        0.73107    0.95126    0.36638    1.000
    N4350    N        0.57657    0.99431    0.47226    1.000
    N4351    N        0.54421    0.99548    0.39171    1.000
    Si4352   Si       0.56153    0.95550    0.40154    1.000
    Si4353   Si       0.57606    0.94968    0.47219    1.000
    N4354    N        0.60545    0.95050    0.39661    1.000
    Si4355   Si       0.63623    0.95272    0.42712    1.000
    N4356    N        0.63525    0.99633    0.43459    1.000
    Si4357   Si       0.72519    0.95188    0.49871    1.000
    N4358    N        0.51733    0.99248    0.51980    1.000
    Si4359   Si       0.55983    0.99793    0.51593    1.000
    Si4360   Si       0.57900    0.98120    0.61703    1.000
    N4361    N        0.58222    0.00647    0.55240    1.000
    N4362    N        0.55970    0.95028    0.51187    1.000
    Si4363   Si       0.51594    0.94565    0.51818    1.000
    Si4364   Si       0.51077    0.99971    0.61833    1.000
    N4365    N        0.60356    0.94536    0.60200    1.000
    N4366    N        0.64033    0.98709    0.50926    1.000
    N4367    N        0.65717    0.98146    0.57350    1.000
    N4368    N        0.71304    0.96504    0.53876    1.000
    Si4369   Si       0.65475    0.98967    0.61769    1.000
    Si4370   Si       0.69801    0.95428    0.57779    1.000
    N4371    N        0.69843    0.96868    0.61983    1.000
    Si4372   Si       0.63026    0.94662    0.56838    1.000
    N4373    N        0.52077    0.96366    0.63948    1.000
    N4374    N        0.57973    0.97493    0.66078    1.000
    Si4375   Si       0.53991    0.97579    0.67744    1.000
    N4376    N        0.61182    0.94981    0.71576    1.000
    N4377    N        0.49341    0.97760    0.69864    1.000
    Si4378   Si       0.61752    0.97523    0.68069    1.000
    N4379    N        0.64442    0.95826    0.65192    1.000
    N4380    N        0.67613    0.95408    0.74152    1.000
    Si4381   Si       0.68852    0.95572    0.66098    1.000
    Si4382   Si       0.69890    0.98761    0.72650    1.000
    N4383    N        0.70049    0.99016    0.68483    1.000
    N4384    N        0.74030    0.98160    0.73892    1.000
    N4385    N        0.58655    0.98208    0.83586    1.000
    Si4386   Si       0.60099    0.96273    0.80081    1.000
    N4387    N        0.49926    0.94622    0.78619    1.000
    Si4388   Si       0.56900    0.94969    0.86070    1.000
    N4389    N        0.61736    0.99136    0.77035    1.000
    N4390    N        0.67962    0.99147    0.80748    1.000
    N4391    N        0.72812    0.99330    0.85582    1.000
    Si4392   Si       0.63408    0.95116    0.75308    1.000
    Si4393   Si       0.67451    0.94888    0.81817    1.000
    Si4394   Si       0.58835    0.97947    0.92731    1.000
    Si4395   Si       0.53136    0.98157    0.98580    1.000
    N4396    N        0.55774    0.96307    0.90067    1.000
    N4397    N        0.57377    0.98619    0.96847    1.000
    Si4398   Si       0.52853    0.99485    0.89589    1.000
    N4399    N        0.51377    0.95524    0.95274    1.000
    Si4400   Si       0.60866    0.00595    0.98933    1.000
    Si4401   Si       0.66328    0.98152    0.94272    1.000
    N4402    N        0.68622    0.99812    0.91146    1.000
    Si4403   Si       0.70138    0.96948    0.88180    1.000
    N4404    N        0.62679    0.96094    0.93087    1.000
    Si4405   Si       0.79493    0.04757    0.03407    1.000
    Si4406   Si       0.82728    0.05573    0.09895    1.000
    N4407    N        0.84563    0.01988    0.08280    1.000
    N4408    N        0.82693    0.06093    0.00649    1.000
    N4409    N        0.75530    0.06148    0.01913    1.000
    Si4410   Si       0.94792    0.05283    0.10245    1.000
    N4411    N        0.90604    0.04435    0.09766    1.000
    Si4412   Si       0.97591    0.04457    0.02928    1.000
    Si4413   Si       0.88880    0.01516    0.06925    1.000
    N4414    N        0.89724    0.01297    0.02730    1.000
    N4415    N        0.96656    0.01532    0.11585    1.000
    N4416    N        0.95477    0.06638    0.00152    1.000
    N4417    N        0.73787    0.05078    0.21302    1.000
    N4418    N        0.80066    0.04049    0.13366    1.000
    Si4419   Si       0.77999    0.06099    0.21310    1.000
    N4420    N        0.80266    0.02522    0.20069    1.000
    Si4421   Si       0.81888    0.01395    0.16172    1.000
    N4422    N        0.86013    0.02457    0.15621    1.000
    N4423    N        0.90081    0.02183    0.21615    1.000
    Si4424   Si       0.88303    0.05723    0.13468    1.000
    Si4425   Si       0.89889    0.06471    0.20847    1.000
    N4426    N        0.77470    0.04593    0.30512    1.000
    Si4427   Si       0.79578    0.02809    0.33875    1.000
    N4428    N        0.83735    0.02535    0.33186    1.000
    N4429    N        0.82997    0.01926    0.26096    1.000
    Si4430   Si       0.83839    0.06255    0.25399    1.000
    Si4431   Si       0.86569    0.01943    0.36480    1.000
    N4432    N        0.88967    0.01902    0.28878    1.000
    N4433    N        0.95539    0.02207    0.25924    1.000
    N4434    N        0.89273    0.05415    0.35317    1.000
    Si4435   Si       0.89473    0.05814    0.30758    1.000
    Si4436   Si       0.95428    0.06469    0.26784    1.000
    N4437    N        0.78960    0.05943    0.36978    1.000
    N4438    N        0.80095    0.02030    0.44830    1.000
    N4439    N        0.85010    0.03906    0.39975    1.000
    Si4440   Si       0.84514    0.02285    0.44059    1.000
    N4441    N        0.74842    0.05802    0.47322    1.000
    Si4442   Si       0.78992    0.06001    0.46026    1.000
    Si4443   Si       0.91624    0.04122    0.45927    1.000
    N4444    N        0.98703    0.06446    0.43923    1.000
    N4445    N        0.91878    0.06046    0.42009    1.000
    N4446    N        0.87298    0.03994    0.46870    1.000
    Si4447   Si       0.78785    0.02181    0.56285    1.000
    N4448    N        0.79119    0.04088    0.60280    1.000
    N4449    N        0.82824    0.03193    0.54365    1.000
    N4450    N        0.76401    0.05173    0.53959    1.000
    Si4451   Si       0.85342    0.04586    0.51108    1.000
    Si4452   Si       0.75999    0.01593    0.61814    1.000
    Si4453   Si       0.90422    0.03971    0.55286    1.000
    N4454    N        0.89740    0.04527    0.59396    1.000
    N4455    N        0.94713    0.02930    0.55226    1.000
    Si4456   Si       0.98691    0.04709    0.54875    1.000
    N4457    N        0.88198    0.00744    0.53253    1.000
    N4458    N        0.80646    0.01917    0.68849    1.000
    N4459    N        0.85528    0.03532    0.72398    1.000
    Si4460   Si       0.81283    0.03741    0.72751    1.000
    N4461    N        0.74692    0.05340    0.73588    1.000
    Si4462   Si       0.95759    0.06200    0.71079    1.000
    N4463    N        0.86215    0.03809    0.65171    1.000
    Si4464   Si       0.92256    0.06643    0.62195    1.000
    N4465    N        0.91902    0.05990    0.73367    1.000
    N4466    N        0.96819    0.02117    0.70102    1.000
    N4467    N        0.92958    0.03018    0.64358    1.000
    Si4468   Si       0.88547    0.01458    0.62121    1.000
    Si4469   Si       0.98820    0.01089    0.74200    1.000
    N4470    N        0.79171    0.03155    0.85191    1.000
    Si4471   Si       0.77011    0.04994    0.82060    1.000
    Si4472   Si       0.83323    0.04376    0.86085    1.000
    Si4473   Si       0.75391    0.01733    0.75762    1.000
    N4474    N        0.86161    0.03975    0.82857    1.000
    N4475    N        0.79888    0.01264    0.75911    1.000
    N4476    N        0.74265    0.02633    0.79817    1.000
    Si4477   Si       0.93170    0.03919    0.77269    1.000
    N4478    N        0.96428    0.01120    0.77896    1.000
    N4479    N        0.89724    0.00991    0.77667    1.000
    N4480    N        0.92196    0.06853    0.80353    1.000
    Si4481   Si       0.75243    0.05746    0.97676    1.000
    N4482    N        0.78373    0.02737    0.96787    1.000
    Si4483   Si       0.82276    0.04183    0.96455    1.000
    N4484    N        0.84430    0.01477    0.89170    1.000
    N4485    N        0.75355    0.01023    0.91430    1.000
    N4486    N        0.86054    0.02193    0.95719    1.000
    N4487    N        0.96687    0.04572    0.92415    1.000
    Si4488   Si       0.87763    0.02759    0.91720    1.000
    Si4489   Si       0.89348    0.02855    0.98525    1.000
    N4490    N        0.89572    0.06327    0.89848    1.000
    Si4491   Si       0.76982    0.09639    0.08598    1.000
    Si4492   Si       0.85647    0.09203    0.00435    1.000
    N4493    N        0.79907    0.07191    0.06996    1.000
    N4494    N        0.85327    0.08346    0.12025    1.000
    N4495    N        0.86705    0.10878    0.04327    1.000
    Si4496   Si       0.97164    0.11004    0.06360    1.000
    N4497    N        0.98602    0.12156    0.02464    1.000
    N4498    N        0.96603    0.06825    0.06736    1.000
    N4499    N        0.78987    0.10569    0.12351    1.000
    Si4500   Si       0.83098    0.10826    0.20252    1.000
    N4501    N        0.79079    0.09395    0.18577    1.000
    N4502    N        0.85696    0.07552    0.21575    1.000
    Si4503   Si       0.83256    0.11973    0.12873    1.000
    Si4504   Si       0.77659    0.07347    0.14747    1.000
    N4505    N        0.90575    0.07598    0.16686    1.000
    N4506    N        0.96047    0.08060    0.13334    1.000
    Si4507   Si       0.93477    0.10782    0.15763    1.000
    N4508    N        0.92627    0.08296    0.23956    1.000
    Si4509   Si       0.78060    0.08628    0.28622    1.000
    N4510    N        0.79730    0.07769    0.24850    1.000
    N4511    N        0.79442    0.12030    0.30796    1.000
    N4512    N        0.86596    0.08158    0.28426    1.000
    Si4513   Si       0.95051    0.09489    0.34355    1.000
    N4514    N        0.93431    0.07485    0.30590    1.000
    N4515    N        0.97480    0.07132    0.37052    1.000
    N4516    N        0.92284    0.10915    0.37482    1.000
    N4517    N        0.75717    0.11526    0.37422    1.000
    Si4518   Si       0.74720    0.07281    0.37119    1.000
    N4519    N        0.79817    0.08973    0.42809    1.000
    Si4520   Si       0.82268    0.07555    0.39536    1.000
    N4521    N        0.85806    0.10143    0.40364    1.000
    N4522    N        0.74613    0.12303    0.44981    1.000
    N4523    N        0.81798    0.06880    0.49311    1.000
    Si4524   Si       0.77187    0.12260    0.41519    1.000
    N4525    N        0.96206    0.12236    0.42699    1.000
    Si4526   Si       0.95697    0.08034    0.41129    1.000
    N4527    N        0.93424    0.07108    0.48684    1.000
    Si4528   Si       0.89177    0.07982    0.38859    1.000
    N4529    N        0.87733    0.11877    0.47735    1.000
    Si4530   Si       0.97532    0.07183    0.48117    1.000
    Si4531   Si       0.80127    0.08307    0.60120    1.000
    Si4532   Si       0.79377    0.07903    0.52643    1.000
    N4533    N        0.81307    0.10010    0.56183    1.000
    N4534    N        0.76460    0.10646    0.61295    1.000
    N4535    N        0.77703    0.11878    0.51456    1.000
    N4536    N        0.96037    0.08138    0.61385    1.000
    Si4537   Si       0.90645    0.09936    0.50497    1.000
    N4538    N        0.88430    0.07104    0.52974    1.000
    Si4539   Si       0.98508    0.10928    0.59034    1.000
    Si4540   Si       0.76724    0.08990    0.71788    1.000
    N4541    N        0.82420    0.09263    0.63764    1.000
    N4542    N        0.76521    0.09365    0.67467    1.000
    N4543    N        0.80576    0.07998    0.73467    1.000
    Si4544   Si       0.86126    0.08103    0.65551    1.000
    Si4545   Si       0.73774    0.08470    0.64101    1.000
    Si4546   Si       0.79411    0.12097    0.65261    1.000
    N4547    N        0.74676    0.12603    0.72823    1.000
    N4548    N        0.86426    0.09781    0.69605    1.000
    Si4549   Si       0.87729    0.07355    0.73214    1.000
    N4550    N        0.97247    0.09017    0.68209    1.000
    N4551    N        0.89748    0.09687    0.63666    1.000
    N4552    N        0.98249    0.06787    0.74448    1.000
    Si4553   Si       0.98973    0.08183    0.64478    1.000
    Si4554   Si       0.81996    0.09914    0.77173    1.000
    N4555    N        0.79108    0.08481    0.80220    1.000
    Si4556   Si       0.76177    0.10886    0.82372    1.000
    N4557    N        0.86131    0.08555    0.77023    1.000
    N4558    N        0.83138    0.08778    0.87146    1.000
    N4559    N        0.88851    0.10813    0.83880    1.000
    Si4560   Si       0.93221    0.10133    0.83027    1.000
    Si4561   Si       0.87943    0.07447    0.80832    1.000
    N4562    N        0.95329    0.09641    0.86728    1.000
    N4563    N        0.83016    0.07448    0.93839    1.000
    N4564    N        0.75704    0.09637    0.95738    1.000
    Si4565   Si       0.83622    0.11711    0.93850    1.000
    Si4566   Si       0.80918    0.12361    0.87797    1.000
    N4567    N        0.84122    0.12598    0.98053    1.000
    N4568    N        0.86456    0.12871    0.90616    1.000
    N4569    N        0.93344    0.10395    0.93945    1.000
    Si4570   Si       0.87364    0.09585    0.87923    1.000
    N4571    N        0.89002    0.07208    0.98746    1.000
    Si4572   Si       0.94020    0.07661    0.90359    1.000
    Si4573   Si       0.92780    0.09171    0.98193    1.000
    N4574    N        0.84024    0.15172    0.10151    1.000
    Si4575   Si       0.84531    0.14620    0.05865    1.000
    N4576    N        0.80970    0.16062    0.03804    1.000
    Si4577   Si       0.77518    0.17020    0.06079    1.000
    N4578    N        0.75313    0.13498    0.07245    1.000
    Si4579   Si       0.82027    0.16168    0.99531    1.000
    N4580    N        0.88064    0.16936    0.04719    1.000
    Si4581   Si       0.94305    0.16710    0.09770    1.000
    Si4582   Si       0.95837    0.15014    0.00731    1.000
    N4583    N        0.93678    0.13630    0.06851    1.000
    Si4584   Si       0.90298    0.13392    0.04228    1.000
    N4585    N        0.92080    0.12862    0.00426    1.000
    N4586    N        0.83862    0.13317    0.23921    1.000
    N4587    N        0.77761    0.15958    0.21561    1.000
    Si4588   Si       0.81734    0.17019    0.23187    1.000
    N4589    N        0.84051    0.13642    0.16898    1.000
    N4590    N        0.75071    0.15890    0.15030    1.000
    Si4591   Si       0.76516    0.13242    0.18181    1.000
    Si4592   Si       0.85714    0.17751    0.17311    1.000
    Si4593   Si       0.93474    0.16756    0.17311    1.000
    N4594    N        0.93149    0.13036    0.19476    1.000
    Si4595   Si       0.93210    0.12636    0.24000    1.000
    N4596    N        0.94146    0.14591    0.13592    1.000
    Si4597   Si       0.81377    0.16235    0.30990    1.000
    Si4598   Si       0.76355    0.13565    0.33594    1.000
    N4599    N        0.78713    0.17219    0.34424    1.000
    N4600    N        0.85797    0.15504    0.30810    1.000
    N4601    N        0.80402    0.18318    0.27062    1.000
    Si4602   Si       0.75127    0.18010    0.24918    1.000
    Si4603   Si       0.86302    0.12504    0.27333    1.000
    N4604    N        0.90188    0.14486    0.26520    1.000
    Si4605   Si       0.96584    0.16759    0.34101    1.000
    Si4606   Si       0.89607    0.17799    0.29727    1.000
    N4607    N        0.92913    0.18050    0.32112    1.000
    N4608    N        0.97600    0.12676    0.32700    1.000
    N4609    N        0.96922    0.14624    0.25035    1.000
    N4610    N        0.83657    0.15884    0.45093    1.000
    N4611    N        0.78197    0.16420    0.41003    1.000
    Si4612   Si       0.75122    0.13982    0.48922    1.000
    N4613    N        0.77328    0.17587    0.48163    1.000
    Si4614   Si       0.85508    0.15732    0.48975    1.000
    Si4615   Si       0.80025    0.17969    0.44601    1.000
    Si4616   Si       0.93324    0.14148    0.39989    1.000
    Si4617   Si       0.86611    0.12909    0.43665    1.000
    N4618    N        0.89952    0.15504    0.42356    1.000
    N4619    N        0.96037    0.17086    0.38412    1.000
    N4620    N        0.83887    0.16321    0.52755    1.000
    Si4621   Si       0.76068    0.15084    0.59961    1.000
    Si4622   Si       0.80440    0.13920    0.54255    1.000
    N4623    N        0.78302    0.16837    0.56388    1.000
    N4624    N        0.96734    0.14729    0.58068    1.000
    Si4625   Si       0.95137    0.16051    0.54193    1.000
    Si4626   Si       0.95871    0.17239    0.61552    1.000
    N4627    N        0.92925    0.12793    0.52660    1.000
    N4628    N        0.91566    0.16609    0.61932    1.000
    N4629    N        0.97854    0.18192    0.51515    1.000
    N4630    N        0.80125    0.15739    0.62728    1.000
    Si4631   Si       0.76373    0.15809    0.70438    1.000
    N4632    N        0.80225    0.14097    0.69145    1.000
    Si4633   Si       0.84623    0.13741    0.69334    1.000
    N4634    N        0.86066    0.15395    0.65552    1.000
    Si4635   Si       0.83911    0.18213    0.62971    1.000
    N4636    N        0.86549    0.16354    0.72203    1.000
    N4637    N        0.77474    0.18400    0.73715    1.000
    Si4638   Si       0.90020    0.13864    0.64811    1.000
    N4639    N        0.98096    0.13957    0.72331    1.000
    N4640    N        0.97651    0.15851    0.65178    1.000
    Si4641   Si       0.90532    0.17554    0.71185    1.000
    N4642    N        0.92142    0.14282    0.68472    1.000
    Si4643   Si       0.97588    0.17949    0.73820    1.000
    Si4644   Si       0.96298    0.13230    0.68587    1.000
    N4645    N        0.81519    0.14450    0.76942    1.000
    Si4646   Si       0.77655    0.16120    0.77548    1.000
    N4647    N        0.82955    0.15157    0.84912    1.000
    N4648    N        0.77113    0.13482    0.85635    1.000
    Si4649   Si       0.84685    0.17356    0.76136    1.000
    Si4650   Si       0.79304    0.17357    0.84286    1.000
    N4651    N        0.74716    0.13337    0.79117    1.000
    Si4652   Si       0.86917    0.14793    0.83177    1.000
    N4653    N        0.87666    0.16701    0.79283    1.000
    N4654    N        0.94300    0.13911    0.80776    1.000
    N4655    N        0.89332    0.16731    0.86130    1.000
    Si4656   Si       0.92230    0.17462    0.78937    1.000
    Si4657   Si       0.98576    0.14780    0.80482    1.000
    N4658    N        0.99057    0.18257    0.77759    1.000
    N4659    N        0.93071    0.18041    0.74682    1.000
    N4660    N        0.77984    0.17010    0.97744    1.000
    Si4661   Si       0.76667    0.13804    0.94625    1.000
    N4662    N        0.80069    0.13352    0.92001    1.000
    Si4663   Si       0.87810    0.16955    0.90264    1.000
    N4664    N        0.97181    0.16196    0.96774    1.000
    Si4665   Si       0.95110    0.14302    0.93393    1.000
    N4666    N        0.91896    0.17143    0.92340    1.000
    N4667    N        0.98495    0.13167    0.91110    1.000
    N4668    N        0.84930    0.21926    0.08082    1.000
    Si4669   Si       0.82757    0.19327    0.10604    1.000
    N4670    N        0.74830    0.19649    0.03705    1.000
    N4671    N        0.78427    0.19013    0.09860    1.000
    Si4672   Si       0.88687    0.20800    0.06336    1.000
    N4673    N        0.91380    0.20103    0.09913    1.000
    Si4674   Si       0.94174    0.23095    0.02736    1.000
    N4675    N        0.89602    0.23729    0.03150    1.000
    N4676    N        0.95416    0.18934    0.02303    1.000
    N4677    N        0.98151    0.18676    0.09689    1.000
    Si4678   Si       0.75736    0.19734    0.13028    1.000
    N4679    N        0.76473    0.22854    0.15980    1.000
    N4680    N        0.83565    0.20455    0.14702    1.000
    N4681    N        0.84593    0.19693    0.21022    1.000
    Si4682   Si       0.75779    0.23384    0.20265    1.000
    N4683    N        0.79349    0.23535    0.23065    1.000
    Si4684   Si       0.83521    0.23862    0.21992    1.000
    N4685    N        0.91877    0.22789    0.22578    1.000
    N4686    N        0.96766    0.19291    0.18447    1.000
    Si4687   Si       0.94715    0.23003    0.19427    1.000
    Si4688   Si       0.90559    0.22323    0.13556    1.000
    N4689    N        0.89886    0.19165    0.16532    1.000
    Si4690   Si       0.79040    0.22495    0.27394    1.000
    N4691    N        0.74907    0.21303    0.28061    1.000
    N4692    N        0.81199    0.23937    0.30907    1.000
    N4693    N        0.89404    0.22409    0.29574    1.000
    Si4694   Si       0.93480    0.22449    0.31831    1.000
    N4695    N        0.96074    0.24107    0.28618    1.000
    Si4696   Si       0.76970    0.19231    0.37962    1.000
    N4697    N        0.79500    0.22732    0.38338    1.000
    N4698    N        0.80595    0.22306    0.45410    1.000
    Si4699   Si       0.78147    0.21827    0.49180    1.000
    N4700    N        0.74367    0.23758    0.48098    1.000
    Si4701   Si       0.96446    0.21239    0.48841    1.000
    Si4702   Si       0.97277    0.19403    0.42054    1.000
    N4703    N        0.88772    0.18711    0.48622    1.000
    N4704    N        0.94323    0.20090    0.45071    1.000
    N4705    N        0.88210    0.22458    0.42617    1.000
    Si4706   Si       0.90117    0.19175    0.44478    1.000
    Si4707   Si       0.76271    0.20767    0.57123    1.000
    N4708    N        0.79736    0.22305    0.53354    1.000
    Si4709   Si       0.83593    0.20219    0.54851    1.000
    N4710    N        0.74846    0.19063    0.61160    1.000
    N4711    N        0.85337    0.19435    0.58945    1.000
    N4712    N        0.86449    0.23209    0.53474    1.000
    Si4713   Si       0.89609    0.19410    0.59035    1.000
    N4714    N        0.97266    0.21137    0.59969    1.000
    Si4715   Si       0.90037    0.21222    0.51975    1.000
    N4716    N        0.90914    0.23072    0.61062    1.000
    N4717    N        0.93379    0.23587    0.50969    1.000
    N4718    N        0.91593    0.18678    0.55318    1.000
    N4719    N        0.85084    0.21976    0.64969    1.000
    Si4720   Si       0.79322    0.22305    0.73875    1.000
    Si4721   Si       0.82785    0.24824    0.67048    1.000
    N4722    N        0.79454    0.23931    0.69830    1.000
    N4723    N        0.91095    0.20778    0.68399    1.000
    Si4724   Si       0.89328    0.23085    0.65132    1.000
    Si4725   Si       0.75197    0.22639    0.80069    1.000
    N4726    N        0.77854    0.19141    0.80597    1.000
    N4727    N        0.83528    0.21713    0.75325    1.000
    N4728    N        0.92774    0.20918    0.81734    1.000
    Si4729   Si       0.92650    0.19421    0.85790    1.000
    Si4730   Si       0.98256    0.23384    0.86963    1.000
    Si4731   Si       0.75223    0.21973    0.87244    1.000
    N4732    N        0.79170    0.20276    0.87659    1.000
    Si4733   Si       0.82028    0.22575    0.90196    1.000
    N4734    N        0.85098    0.20077    0.91836    1.000
    N4735    N        0.84951    0.19221    0.98321    1.000
    N4736    N        0.79437    0.24313    0.93356    1.000
    Si4737   Si       0.74665    0.19094    0.99470    1.000
    Si4738   Si       0.86476    0.22041    0.95583    1.000
    Si4739   Si       0.93212    0.21414    0.91670    1.000
    N4740    N        0.90605    0.23178    0.95096    1.000
    Si4741   Si       0.98656    0.20023    0.98516    1.000
    N4742    N        0.90514    0.22357    0.88187    1.000
    N4743    N        0.96194    0.19779    0.88479    1.000
    N4744    N        0.96281    0.23769    0.98674    1.000
    N4745    N        0.82789    0.26483    0.04041    1.000
    Si4746   Si       0.84344    0.26319    0.08353    1.000
    Si4747   Si       0.79614    0.29333    0.02919    1.000
    N4748    N        0.81385    0.25968    0.11553    1.000
    N4749    N        0.73776    0.27090    0.11270    1.000
    N4750    N        0.77736    0.28601    0.99199    1.000
    Si4751   Si       0.86471    0.26285    0.01471    1.000
    Si4752   Si       0.96367    0.28896    0.06963    1.000
    N4753    N        0.93533    0.29142    0.10247    1.000
    N4754    N        0.96181    0.24553    0.06111    1.000
    N4755    N        0.86439    0.30430    0.08752    1.000
    N4756    N        0.94068    0.31015    0.03967    1.000
    Si4757   Si       0.84265    0.24692    0.14772    1.000
    N4758    N        0.84380    0.26510    0.18580    1.000
    Si4759   Si       0.77583    0.26139    0.13252    1.000
    N4760    N        0.77004    0.29469    0.16192    1.000
    N4761    N        0.73671    0.27247    0.21257    1.000
    N4762    N        0.93530    0.24719    0.15637    1.000
    Si4763   Si       0.95899    0.27673    0.13807    1.000
    N4764    N        0.97563    0.25808    0.21578    1.000
    N4765    N        0.87805    0.25658    0.12589    1.000
    Si4766   Si       0.89567    0.30097    0.11921    1.000
    N4767    N        0.79806    0.28890    0.35818    1.000
    Si4768   Si       0.75508    0.29302    0.35391    1.000
    N4769    N        0.85347    0.25463    0.25705    1.000
    N4770    N        0.85934    0.25310    0.34668    1.000
    Si4771   Si       0.81626    0.24910    0.35208    1.000
    Si4772   Si       0.85516    0.25007    0.30298    1.000
    Si4773   Si       0.84620    0.29895    0.26292    1.000
    N4774    N        0.86705    0.29525    0.30231    1.000
    N4775    N        0.92069    0.28421    0.26154    1.000
    Si4776   Si       0.87886    0.29149    0.35030    1.000
    Si4777   Si       0.96041    0.27151    0.25328    1.000
    Si4778   Si       0.94084    0.28375    0.36809    1.000
    Si4779   Si       0.89813    0.24691    0.25855    1.000
    N4780    N        0.91994    0.30292    0.33519    1.000
    N4781    N        0.95215    0.24412    0.35166    1.000
    N4782    N        0.83672    0.27455    0.42158    1.000
    Si4783   Si       0.80207    0.25244    0.42159    1.000
    N4784    N        0.76657    0.27716    0.42959    1.000
    N4785    N        0.99242    0.24298    0.47137    1.000
    Si4786   Si       0.87818    0.26636    0.42198    1.000
    N4787    N        0.89582    0.29716    0.44965    1.000
    N4788    N        0.90389    0.28124    0.39124    1.000
    Si4789   Si       0.79010    0.26328    0.54756    1.000
    N4790    N        0.82794    0.27649    0.56936    1.000
    N4791    N        0.77889    0.28961    0.51621    1.000
    Si4792   Si       0.82457    0.29245    0.61275    1.000
    Si4793   Si       0.85823    0.27618    0.53886    1.000
    Si4794   Si       0.74748    0.26868    0.61580    1.000
    N4795    N        0.76719    0.25096    0.58294    1.000
    N4796    N        0.84479    0.30167    0.50356    1.000
    N4797    N        0.95143    0.27491    0.56717    1.000
    Si4798   Si       0.94053    0.27466    0.52466    1.000
    N4799    N        0.89989    0.28912    0.53398    1.000
    Si4800   Si       0.94788    0.24646    0.60087    1.000
    N4801    N        0.96747    0.30006    0.50212    1.000
    N4802    N        0.80232    0.26927    0.64323    1.000
    Si4803   Si       0.77003    0.26925    0.67298    1.000
    N4804    N        0.85241    0.26956    0.69734    1.000
    N4805    N        0.75246    0.29309    0.70550    1.000
    Si4806   Si       0.85898    0.25143    0.73889    1.000
    N4807    N        0.86373    0.30060    0.63165    1.000
    N4808    N        0.73909    0.24514    0.65271    1.000
    Si4809   Si       0.75167    0.28230    0.74938    1.000
    Si4810   Si       0.92912    0.24278    0.70130    1.000
    N4811    N        0.96987    0.27107    0.62997    1.000
    N4812    N        0.91397    0.26940    0.66677    1.000
    N4813    N        0.96022    0.26755    0.71883    1.000
    N4814    N        0.90138    0.24859    0.73484    1.000
    Si4815   Si       0.94407    0.30055    0.65321    1.000
    Si4816   Si       0.98790    0.30008    0.71233    1.000
    Si4817   Si       0.87795    0.29569    0.67304    1.000
    Si4818   Si       0.75239    0.28966    0.84949    1.000
    N4819    N        0.85354    0.28132    0.76832    1.000
    N4820    N        0.75152    0.24783    0.83795    1.000
    Si4821   Si       0.82766    0.29278    0.86456    1.000
    N4822    N        0.76754    0.24656    0.76596    1.000
    N4823    N        0.82172    0.29502    0.82149    1.000
    Si4824   Si       0.86161    0.29823    0.80780    1.000
    N4825    N        0.95417    0.26273    0.85593    1.000
    N4826    N        0.95357    0.26928    0.78732    1.000
    N4827    N        0.88938    0.26872    0.82780    1.000
    Si4828   Si       0.93070    0.25294    0.81941    1.000
    Si4829   Si       0.93004    0.27510    0.75269    1.000
    N4830    N        0.78714    0.29020    0.87605    1.000
    N4831    N        0.84424    0.25524    0.87986    1.000
    Si4832   Si       0.80876    0.27084    0.96391    1.000
    N4833    N        0.84631    0.25539    0.97731    1.000
    N4834    N        0.74583    0.29273    0.93555    1.000
    Si4835   Si       0.75172    0.24669    0.94066    1.000
    N4836    N        0.93535    0.30336    0.96705    1.000
    Si4837   Si       0.93740    0.26082    0.96105    1.000
    N4838    N        0.90670    0.29098    0.89404    1.000
    N4839    N        0.95941    0.25399    0.92259    1.000
    Si4840   Si       0.88597    0.25891    0.87120    1.000
    Si4841   Si       0.94902    0.28627    0.89208    1.000
    N4842    N        0.81379    0.33383    0.02892    1.000
    Si4843   Si       0.85444    0.33930    0.01610    1.000
    Si4844   Si       0.78965    0.34594    0.06339    1.000
    Si4845   Si       0.86089    0.34798    0.08902    1.000
    N4846    N        0.81689    0.35751    0.09455    1.000
    N4847    N        0.77481    0.30318    0.06532    1.000
    Si4848   Si       0.91708    0.31995    0.00385    1.000
    N4849    N        0.87757    0.30507    0.00936    1.000
    N4850    N        0.89509    0.35363    0.11261    1.000
    N4851    N        0.77501    0.33621    0.21777    1.000
    Si4852   Si       0.78890    0.33180    0.17765    1.000
    N4853    N        0.83355    0.33797    0.17831    1.000
    Si4854   Si       0.86061    0.30579    0.18867    1.000
    N4855    N        0.89665    0.31122    0.16224    1.000
    N4856    N        0.96404    0.31440    0.16102    1.000
    N4857    N        0.93929    0.34151    0.21745    1.000
    Si4858   Si       0.97694    0.34330    0.23940    1.000
    N4859    N        0.86757    0.31668    0.23027    1.000
    Si4860   Si       0.92853    0.33583    0.17566    1.000
    Si4861   Si       0.90025    0.34341    0.23853    1.000
    N4862    N        0.81122    0.32310    0.27444    1.000
    Si4863   Si       0.78291    0.34035    0.30339    1.000
    N4864    N        0.75179    0.31715    0.31857    1.000
    N4865    N        0.80605    0.35587    0.33650    1.000
    N4866    N        0.85537    0.32137    0.36895    1.000
    Si4867   Si       0.79754    0.35666    0.24720    1.000
    N4868    N        0.91241    0.35044    0.27876    1.000
    Si4869   Si       0.90962    0.31038    0.29427    1.000
    N4870    N        0.98742    0.30615    0.25978    1.000
    Si4871   Si       0.81202    0.32762    0.36787    1.000
    N4872    N        0.85183    0.35801    0.46312    1.000
    N4873    N        0.79179    0.33359    0.46506    1.000
    Si4874   Si       0.76233    0.32033    0.42632    1.000
    N4875    N        0.79589    0.34612    0.40390    1.000
    N4876    N        0.73582    0.31755    0.38601    1.000
    Si4877   Si       0.87836    0.35766    0.37169    1.000
    Si4878   Si       0.98460    0.32941    0.42635    1.000
    Si4879   Si       0.91976    0.31472    0.41803    1.000
    N4880    N        0.94930    0.34178    0.44797    1.000
    Si4881   Si       0.94707    0.33769    0.49149    1.000
    Si4882   Si       0.87240    0.32129    0.47647    1.000
    N4883    N        0.90785    0.35529    0.40122    1.000
    N4884    N        0.96239    0.30638    0.39773    1.000
    N4885    N        0.81107    0.33528    0.60920    1.000
    Si4886   Si       0.80670    0.31980    0.50266    1.000
    N4887    N        0.80709    0.35058    0.53313    1.000
    Si4888   Si       0.82669    0.35333    0.57316    1.000
    N4889    N        0.86797    0.33377    0.56842    1.000
    N4890    N        0.93798    0.34569    0.55445    1.000
    Si4891   Si       0.90025    0.33375    0.53812    1.000
    Si4892   Si       0.88299    0.33116    0.60950    1.000
    Si4893   Si       0.95222    0.31555    0.58323    1.000
    N4894    N        0.92642    0.32003    0.61798    1.000
    N4895    N        0.90413    0.34602    0.49662    1.000
    Si4896   Si       0.77280    0.33589    0.71859    1.000
    N4897    N        0.75230    0.31041    0.63693    1.000
    Si4898   Si       0.78439    0.34335    0.64245    1.000
    N4899    N        0.80132    0.33754    0.68281    1.000
    N4900    N        0.85703    0.35504    0.73880    1.000
    Si4901   Si       0.89729    0.34360    0.72662    1.000
    N4902    N        0.97282    0.32198    0.67757    1.000
    N4903    N        0.89198    0.33375    0.68583    1.000
    Si4904   Si       0.79270    0.31785    0.79863    1.000
    N4905    N        0.75105    0.31698    0.81482    1.000
    N4906    N        0.78139    0.31258    0.75663    1.000
    N4907    N        0.81019    0.35659    0.79796    1.000
    N4908    N        0.87747    0.34007    0.80696    1.000
    N4909    N        0.92686    0.34594    0.86175    1.000
    Si4910   Si       0.95146    0.34535    0.75826    1.000
    N4911    N        0.92007    0.31612    0.75181    1.000
    N4912    N        0.98685    0.31931    0.75219    1.000
    N4913    N        0.85131    0.32917    0.87493    1.000
    Si4914   Si       0.77941    0.31008    0.91307    1.000
    N4915    N        0.78391    0.35240    0.90123    1.000
    Si4916   Si       0.74563    0.31023    0.97608    1.000
    N4917    N        0.74387    0.35460    0.96660    1.000
    N4918    N        0.81448    0.30524    0.93826    1.000
    N4919    N        0.90134    0.35001    0.92471    1.000
    Si4920   Si       0.89244    0.33179    0.88843    1.000
    Si4921   Si       0.96706    0.35545    0.87533    1.000
    N4922    N        0.97115    0.32166    0.90506    1.000
    Si4923   Si       0.94110    0.33873    0.94009    1.000
    N4924    N        0.75589    0.37305    0.06004    1.000
    Si4925   Si       0.76203    0.41117    0.03966    1.000
    N4926    N        0.79616    0.40736    0.01469    1.000
    Si4927   Si       0.83641    0.40521    0.00027    1.000
    N4928    N        0.73694    0.41348    0.00224    1.000
    N4929    N        0.92562    0.41437    0.05434    1.000
    Si4930   Si       0.96442    0.39557    0.05982    1.000
    Si4931   Si       0.89519    0.39089    0.03277    1.000
    N4932    N        0.95788    0.38430    0.10304    1.000
    N4933    N        0.98148    0.36844    0.02960    1.000
    N4934    N        0.91687    0.36602    0.00289    1.000
    N4935    N        0.87099    0.36109    0.04950    1.000
    Si4936   Si       0.95694    0.38306    0.99643    1.000
    N4937    N        0.82240    0.38689    0.22615    1.000
    Si4938   Si       0.80731    0.38358    0.12643    1.000
    Si4939   Si       0.76071    0.40663    0.15885    1.000
    Si4940   Si       0.84900    0.37779    0.19175    1.000
    N4941    N        0.84289    0.39927    0.15082    1.000
    N4942    N        0.77673    0.36561    0.15187    1.000
    Si4943   Si       0.91880    0.38786    0.12196    1.000
    Si4944   Si       0.92007    0.40135    0.19537    1.000
    N4945    N        0.88761    0.37629    0.20972    1.000
    Si4946   Si       0.97689    0.38146    0.14106    1.000
    N4947    N        0.95299    0.42004    0.21967    1.000
    N4948    N        0.93603    0.37839    0.16260    1.000
    Si4949   Si       0.83750    0.38492    0.33651    1.000
    N4950    N        0.77102    0.37532    0.27680    1.000
    Si4951   Si       0.77797    0.41425    0.29651    1.000
    N4952    N        0.81778    0.41611    0.31582    1.000
    Si4953   Si       0.98077    0.37334    0.31479    1.000
    Si4954   Si       0.90830    0.38355    0.30568    1.000
    N4955    N        0.94360    0.38909    0.33243    1.000
    N4956    N        0.98098    0.37633    0.27012    1.000
    N4957    N        0.87703    0.36738    0.32790    1.000
    Si4958   Si       0.97980    0.41566    0.25235    1.000
    Si4959   Si       0.94960    0.41677    0.36723    1.000
    N4960    N        0.85486    0.39475    0.37697    1.000
    N4961    N        0.79493    0.40222    0.43119    1.000
    Si4962   Si       0.76275    0.38103    0.41065    1.000
    Si4963   Si       0.81436    0.36305    0.44250    1.000
    Si4964   Si       0.93330    0.37894    0.42814    1.000
    N4965    N        0.90936    0.40079    0.45667    1.000
    Si4966   Si       0.88259    0.38376    0.48257    1.000
    N4967    N        0.96420    0.39326    0.40047    1.000
    N4968    N        0.83490    0.39504    0.57349    1.000
    Si4969   Si       0.76986    0.37420    0.53834    1.000
    N4970    N        0.75898    0.37345    0.57952    1.000
    N4971    N        0.78657    0.41559    0.53061    1.000
    Si4972   Si       0.83081    0.41916    0.53857    1.000
    N4973    N        0.86660    0.40520    0.51699    1.000
    Si4974   Si       0.86614    0.40771    0.59992    1.000
    Si4975   Si       0.95975    0.38243    0.54398    1.000
    N4976    N        0.97521    0.36708    0.50337    1.000
    N4977    N        0.79394    0.37785    0.73191    1.000
    N4978    N        0.76469    0.38197    0.64582    1.000
    N4979    N        0.84976    0.38776    0.67948    1.000
    Si4980   Si       0.82818    0.36368    0.70787    1.000
    Si4981   Si       0.94758    0.40525    0.70788    1.000
    N4982    N        0.93271    0.37087    0.72894    1.000
    Si4983   Si       0.98170    0.41835    0.63317    1.000
    N4984    N        0.91715    0.40536    0.67393    1.000
    N4985    N        0.87983    0.37372    0.62229    1.000
    N4986    N        0.98205    0.41263    0.73661    1.000
    Si4987   Si       0.88891    0.37340    0.66609    1.000
    Si4988   Si       0.80026    0.38941    0.82258    1.000
    N4989    N        0.85098    0.40894    0.79231    1.000
    N4990    N        0.83232    0.38895    0.85274    1.000
    N4991    N        0.76215    0.38257    0.84201    1.000
    Si4992   Si       0.78216    0.41471    0.74820    1.000
    Si4993   Si       0.85047    0.36345    0.78150    1.000
    Si4994   Si       0.86262    0.41570    0.83488    1.000
    Si4995   Si       0.74075    0.40375    0.80949    1.000
    N4996    N        0.78036    0.41863    0.79261    1.000
    N4997    N        0.90282    0.40091    0.82993    1.000
    Si4998   Si       0.93968    0.40908    0.80803    1.000
    N4999    N        0.94473    0.36723    0.79488    1.000
    N5000    N        0.97351    0.40976    0.83482    1.000
    Si5001   Si       0.91221    0.35838    0.82464    1.000
    N5002    N        0.77746    0.40799    0.94401    1.000
    N5003    N        0.85557    0.37145    0.98601    1.000
    Si5004   Si       0.75843    0.37374    0.92967    1.000
    N5005    N        0.84229    0.38397    0.91996    1.000
    Si5006   Si       0.82351    0.36133    0.88726    1.000
    N5007    N        0.89886    0.41557    0.94820    1.000
    N5008    N        0.97379    0.39327    0.89862    1.000
    N5009    N        0.96774    0.36579    0.95950    1.000
    Si5010   Si       0.87720    0.37699    0.94840    1.000
    N5011    N        0.76872    0.44729    0.06303    1.000
    Si5012   Si       0.79632    0.45101    0.09630    1.000
    N5013    N        0.83835    0.44125    0.08890    1.000
    Si5014   Si       0.85807    0.45590    0.05322    1.000
    N5015    N        0.78496    0.42085    0.12474    1.000
    Si5016   Si       0.91889    0.44735    0.08208    1.000
    N5017    N        0.95831    0.46319    0.09404    1.000
    N5018    N        0.86571    0.42379    0.02617    1.000
    N5019    N        0.89862    0.42413    0.11308    1.000
    N5020    N        0.89412    0.47807    0.06526    1.000
    Si5021   Si       0.85990    0.43307    0.12672    1.000
    N5022    N        0.82914    0.45658    0.21229    1.000
    N5023    N        0.85207    0.46837    0.15151    1.000
    Si5024   Si       0.80025    0.42617    0.22636    1.000
    N5025    N        0.76845    0.41888    0.19883    1.000
    N5026    N        0.96238    0.47639    0.17371    1.000
    Si5027   Si       0.86625    0.46282    0.19189    1.000
    N5028    N        0.90262    0.44104    0.19231    1.000
    Si5029   Si       0.94023    0.46027    0.20524    1.000
    N5030    N        0.98834    0.42283    0.14615    1.000
    Si5031   Si       0.82047    0.45471    0.33822    1.000
    N5032    N        0.78317    0.43999    0.26320    1.000
    Si5033   Si       0.75155    0.44309    0.36592    1.000
    N5034    N        0.74899    0.43337    0.32322    1.000
    N5035    N        0.86505    0.45511    0.34541    1.000
    N5036    N        0.97500    0.44608    0.28206    1.000
    Si5037   Si       0.88813    0.46108    0.30824    1.000
    N5038    N        0.97620    0.44856    0.35491    1.000
    N5039    N        0.89788    0.42190    0.29083    1.000
    N5040    N        0.79514    0.44564    0.37200    1.000
    N5041    N        0.85029    0.44893    0.41532    1.000
    Si5042   Si       0.80698    0.44109    0.41397    1.000
    N5043    N        0.78533    0.47430    0.43351    1.000
    N5044    N        0.96435    0.47268    0.41884    1.000
    N5045    N        0.91648    0.43560    0.38792    1.000
    Si5046   Si       0.87320    0.43272    0.38273    1.000
    Si5047   Si       0.98121    0.46301    0.45648    1.000
    N5048    N        0.95620    0.47199    0.48957    1.000
    Si5049   Si       0.92312    0.47285    0.40999    1.000
    N5050    N        0.83895    0.46124    0.54885    1.000
    Si5051   Si       0.75268    0.44279    0.52862    1.000
    Si5052   Si       0.85709    0.46887    0.58664    1.000
    N5053    N        0.76343    0.47250    0.49914    1.000
    Si5054   Si       0.73820    0.47462    0.60477    1.000
    Si5055   Si       0.96393    0.45400    0.52838    1.000
    Si5056   Si       0.92204    0.46119    0.59281    1.000
    N5057    N        0.89199    0.43406    0.57607    1.000
    Si5058   Si       0.89815    0.42987    0.53463    1.000
    N5059    N        0.89275    0.46708    0.51319    1.000
    N5060    N        0.94412    0.44104    0.62442    1.000
    N5061    N        0.95067    0.47626    0.56395    1.000
    N5062    N        0.93913    0.41733    0.53130    1.000
    N5063    N        0.77121    0.45240    0.62269    1.000
    N5064    N        0.84561    0.44235    0.62239    1.000
    Si5065   Si       0.82165    0.46937    0.70068    1.000
    N5066    N        0.80439    0.43998    0.67189    1.000
    Si5067   Si       0.84738    0.42776    0.66355    1.000
    Si5068   Si       0.81008    0.46887    0.63322    1.000
    N5069    N        0.81410    0.44276    0.73582    1.000
    Si5070   Si       0.76564    0.42419    0.65779    1.000
    N5071    N        0.86382    0.45707    0.69091    1.000
    N5072    N        0.74197    0.42352    0.73683    1.000
    Si5073   Si       0.93509    0.44563    0.66815    1.000
    N5074    N        0.97700    0.42254    0.67747    1.000
    N5075    N        0.92915    0.44542    0.71875    1.000
    Si5076   Si       0.89468    0.46982    0.71668    1.000
    Si5077   Si       0.84163    0.44613    0.77178    1.000
    Si5078   Si       0.78042    0.46072    0.80830    1.000
    N5079    N        0.82339    0.47022    0.80281    1.000
    N5080    N        0.78206    0.46957    0.85169    1.000
    N5081    N        0.86075    0.45070    0.86056    1.000
    Si5082   Si       0.82308    0.47210    0.87026    1.000
    N5083    N        0.94052    0.44564    0.78639    1.000
    N5084    N        0.87806    0.46783    0.76146    1.000
    Si5085   Si       0.89886    0.46897    0.86819    1.000
    Si5086   Si       0.96251    0.44947    0.74912    1.000
    N5087    N        0.81156    0.45289    0.90815    1.000
    N5088    N        0.82900    0.43681    0.97115    1.000
    Si5089   Si       0.77393    0.42853    0.98255    1.000
    N5090    N        0.77130    0.47191    0.97059    1.000
    Si5091   Si       0.84812    0.47224    0.98574    1.000
    Si5092   Si       0.81788    0.41775    0.93259    1.000
    Si5093   Si       0.92069    0.44608    0.96662    1.000
    Si5094   Si       0.98392    0.45219    0.97240    1.000
    Si5095   Si       0.97369    0.42919    0.87482    1.000
    N5096    N        0.95374    0.42615    0.99109    1.000
    N5097    N        0.95176    0.46828    0.94699    1.000
    N5098    N        0.93691    0.45298    0.87904    1.000
    N5099    N        0.89004    0.47673    0.97730    1.000
    N5100    N        0.77547    0.51522    0.04934    1.000
    Si5101   Si       0.79786    0.52374    0.08684    1.000
    Si5102   Si       0.84281    0.52807    0.03091    1.000
    N5103    N        0.79967    0.49121    0.11226    1.000
    N5104    N        0.83907    0.48433    0.02650    1.000
    Si5105   Si       0.74420    0.48232    0.05316    1.000
    Si5106   Si       0.98602    0.49666    0.09793    1.000
    Si5107   Si       0.90943    0.51791    0.05150    1.000
    N5108    N        0.94946    0.51145    0.03836    1.000
    N5109    N        0.97085    0.53092    0.12076    1.000
    N5110    N        0.81044    0.51661    0.18004    1.000
    Si5111   Si       0.82715    0.50249    0.14314    1.000
    Si5112   Si       0.82754    0.50125    0.21671    1.000
    N5113    N        0.74647    0.52371    0.19820    1.000
    N5114    N        0.85938    0.53347    0.13950    1.000
    N5115    N        0.86961    0.50633    0.21145    1.000
    N5116    N        0.92399    0.52985    0.17265    1.000
    N5117    N        0.93142    0.48344    0.23966    1.000
    Si5118   Si       0.96406    0.51852    0.16213    1.000
    Si5119   Si       0.88087    0.53247    0.17686    1.000
    Si5120   Si       0.83833    0.51073    0.29819    1.000
    N5121    N        0.80699    0.48743    0.31399    1.000
    Si5122   Si       0.78154    0.48085    0.27968    1.000
    N5123    N        0.74127    0.50285    0.28295    1.000
    N5124    N        0.80273    0.50674    0.25111    1.000
    N5125    N        0.86504    0.52548    0.33107    1.000
    N5126    N        0.86982    0.48744    0.27801    1.000
    Si5127   Si       0.94169    0.50930    0.34622    1.000
    N5128    N        0.97559    0.51911    0.28510    1.000
    N5129    N        0.98048    0.51559    0.36294    1.000
    Si5130   Si       0.95277    0.48302    0.27765    1.000
    N5131    N        0.92712    0.48345    0.31293    1.000
    Si5132   Si       0.89528    0.50817    0.24787    1.000
    Si5133   Si       0.79283    0.48916    0.47292    1.000
    Si5134   Si       0.75317    0.49954    0.41806    1.000
    N5135    N        0.85208    0.51394    0.40530    1.000
    N5136    N        0.77609    0.53195    0.47686    1.000
    N5137    N        0.83641    0.48439    0.47519    1.000
    Si5138   Si       0.86013    0.48508    0.43701    1.000
    N5139    N        0.90109    0.48435    0.44540    1.000
    N5140    N        0.91496    0.50248    0.37967    1.000
    Si5141   Si       0.87775    0.52578    0.37440    1.000
    Si5142   Si       0.91790    0.49231    0.48632    1.000
    N5143    N        0.82392    0.50183    0.60387    1.000
    N5144    N        0.75451    0.51444    0.60163    1.000
    Si5145   Si       0.79378    0.52452    0.58620    1.000
    N5146    N        0.85172    0.52852    0.52727    1.000
    Si5147   Si       0.85199    0.48622    0.51567    1.000
    Si5148   Si       0.96878    0.51483    0.57628    1.000
    N5149    N        0.89180    0.49210    0.59796    1.000
    Si5150   Si       0.89928    0.53425    0.59893    1.000
    N5151    N        0.91789    0.53241    0.50261    1.000
    N5152    N        0.94258    0.53740    0.60239    1.000
    N5153    N        0.97797    0.53092    0.53553    1.000
    N5154    N        0.81555    0.50048    0.66657    1.000
    N5155    N        0.82060    0.50726    0.72814    1.000
    N5156    N        0.74998    0.48844    0.71464    1.000
    Si5157   Si       0.79932    0.53211    0.69512    1.000
    Si5158   Si       0.85924    0.51757    0.74266    1.000
    Si5159   Si       0.82952    0.53889    0.64077    1.000
    N5160    N        0.89629    0.51247    0.71840    1.000
    Si5161   Si       0.92978    0.52728    0.69170    1.000
    N5162    N        0.93639    0.48984    0.66996    1.000
    N5163    N        0.98446    0.48491    0.74522    1.000
    N5164    N        0.76164    0.49278    0.78636    1.000
    N5165    N        0.83695    0.51284    0.85570    1.000
    Si5166   Si       0.85336    0.49796    0.81925    1.000
    N5167    N        0.85799    0.52553    0.78695    1.000
    Si5168   Si       0.77865    0.50141    0.74647    1.000
    N5169    N        0.93750    0.51492    0.77889    1.000
    N5170    N        0.89793    0.49101    0.82796    1.000
    Si5171   Si       0.97410    0.52778    0.75406    1.000
    Si5172   Si       0.91295    0.47976    0.78722    1.000
    N5173    N        0.74708    0.53807    0.98582    1.000
    Si5174   Si       0.75612    0.49616    0.87437    1.000
    N5175    N        0.77887    0.51081    0.90830    1.000
    Si5176   Si       0.79869    0.48462    0.93760    1.000
    N5177    N        0.83547    0.50136    0.95390    1.000
    Si5178   Si       0.73758    0.49476    0.98124    1.000
    N5179    N        0.89824    0.49317    0.90811    1.000
    Si5180   Si       0.88098    0.50555    0.94552    1.000
    Si5181   Si       0.94121    0.48587    0.90866    1.000
    N5182    N        0.96711    0.51740    0.89492    1.000
    N5183    N        0.77013    0.57898    0.03929    1.000
    N5184    N        0.78600    0.55943    0.10642    1.000
    Si5185   Si       0.75268    0.57210    0.07786    1.000
    Si5186   Si       0.77627    0.54324    0.01671    1.000
    N5187    N        0.81754    0.54482    0.00000    1.000
    N5188    N        0.83817    0.53565    0.07298    1.000
    Si5189   Si       0.86666    0.55276    0.10076    1.000
    Si5190   Si       0.94271    0.56082    0.10119    1.000
    Si5191   Si       0.97065    0.58999    0.02601    1.000
    N5192    N        0.95917    0.58936    0.06960    1.000
    N5193    N        0.90672    0.54052    0.08762    1.000
    N5194    N        0.88453    0.53809    0.02292    1.000
    N5195    N        0.92964    0.59053    0.00885    1.000
    N5196    N        0.76884    0.58399    0.17037    1.000
    N5197    N        0.79853    0.57250    0.22656    1.000
    Si5198   Si       0.78232    0.54864    0.19248    1.000
    Si5199   Si       0.78188    0.59676    0.12944    1.000
    N5200    N        0.92625    0.58792    0.13404    1.000
    N5201    N        0.88460    0.57625    0.18778    1.000
    N5202    N        0.95458    0.59186    0.20047    1.000
    Si5203   Si       0.92545    0.57510    0.17508    1.000
    N5204    N        0.76891    0.56505    0.29020    1.000
    N5205    N        0.83755    0.55346    0.27906    1.000
    Si5206   Si       0.79790    0.54832    0.26165    1.000
    Si5207   Si       0.84915    0.59472    0.27847    1.000
    N5208    N        0.92920    0.54931    0.33239    1.000
    Si5209   Si       0.94871    0.55378    0.29088    1.000
    Si5210   Si       0.89126    0.55323    0.30851    1.000
    Si5211   Si       0.92673    0.57861    0.36824    1.000
    N5212    N        0.91123    0.54328    0.27063    1.000
    N5213    N        0.88338    0.59440    0.30699    1.000
    N5214    N        0.95520    0.59604    0.28987    1.000
    Si5215   Si       0.78539    0.55992    0.44312    1.000
    N5216    N        0.82511    0.57584    0.43700    1.000
    Si5217   Si       0.85575    0.58963    0.40613    1.000
    N5218    N        0.76222    0.54285    0.40995    1.000
    Si5219   Si       0.84865    0.59288    0.47239    1.000
    Si5220   Si       0.97024    0.58475    0.43709    1.000
    N5221    N        0.96062    0.57567    0.39418    1.000
    N5222    N        0.88822    0.56920    0.38400    1.000
    N5223    N        0.97275    0.55373    0.46760    1.000
    Si5224   Si       0.82820    0.56418    0.53740    1.000
    Si5225   Si       0.76806    0.55453    0.51352    1.000
    N5226    N        0.80667    0.58448    0.50367    1.000
    N5227    N        0.74189    0.58984    0.52286    1.000
    N5228    N        0.79832    0.56053    0.61317    1.000
    N5229    N        0.78861    0.54410    0.54960    1.000
    N5230    N        0.83664    0.59439    0.56817    1.000
    N5231    N        0.89537    0.56384    0.56668    1.000
    Si5232   Si       0.88774    0.55092    0.52678    1.000
    Si5233   Si       0.95437    0.55226    0.50578    1.000
    N5234    N        0.87561    0.58774    0.50751    1.000
    N5235    N        0.94927    0.59398    0.52150    1.000
    N5236    N        0.77115    0.54497    0.73160    1.000
    Si5237   Si       0.75898    0.54935    0.62981    1.000
    N5238    N        0.82734    0.56164    0.67851    1.000
    Si5239   Si       0.84774    0.58915    0.70593    1.000
    N5240    N        0.86299    0.56307    0.73878    1.000
    N5241    N        0.76269    0.53675    0.66924    1.000
    Si5242   Si       0.89176    0.58179    0.64984    1.000
    N5243    N        0.92694    0.56129    0.66543    1.000
    N5244    N        0.87014    0.55072    0.62908    1.000
    Si5245   Si       0.95583    0.56561    0.63350    1.000
    N5246    N        0.96659    0.53981    0.71321    1.000
    N5247    N        0.77528    0.56775    0.79882    1.000
    Si5248   Si       0.75286    0.57200    0.76187    1.000
    Si5249   Si       0.76283    0.56869    0.84008    1.000
    N5250    N        0.85406    0.58545    0.85399    1.000
    Si5251   Si       0.86681    0.56798    0.78193    1.000
    N5252    N        0.96329    0.57010    0.77170    1.000
    N5253    N        0.90134    0.57313    0.80891    1.000
    Si5254   Si       0.93770    0.55190    0.80182    1.000
    N5255    N        0.96712    0.55051    0.83423    1.000
    Si5256   Si       0.89623    0.58618    0.84867    1.000
    Si5257   Si       0.83127    0.55347    0.87290    1.000
    N5258    N        0.79122    0.57276    0.87416    1.000
    N5259    N        0.78932    0.56877    0.94532    1.000
    Si5260   Si       0.77137    0.55432    0.90813    1.000
    Si5261   Si       0.82416    0.54577    0.95435    1.000
    N5262    N        0.84511    0.55144    0.91358    1.000
    Si5263   Si       0.95580    0.55649    0.87645    1.000
    Si5264   Si       0.89293    0.56864    0.99227    1.000
    Si5265   Si       0.88640    0.56454    0.91687    1.000
    N5266    N        0.89363    0.54601    0.95541    1.000
    N5267    N        0.91294    0.56245    0.88098    1.000
    Si5268   Si       0.78165    0.61994    0.03017    1.000
    N5269    N        0.81997    0.62670    0.05207    1.000
    Si5270   Si       0.83683    0.62787    0.09251    1.000
    Si5271   Si       0.83865    0.63728    0.01361    1.000
    N5272    N        0.74769    0.64726    0.03968    1.000
    N5273    N        0.74934    0.61010    0.10127    1.000
    Si5274   Si       0.90999    0.63228    0.00983    1.000
    Si5275   Si       0.95245    0.63248    0.07317    1.000
    N5276    N        0.91790    0.64228    0.09717    1.000
    N5277    N        0.93837    0.65300    0.03660    1.000
    N5278    N        0.86622    0.59666    0.09887    1.000
    N5279    N        0.81338    0.62536    0.13023    1.000
    N5280    N        0.76396    0.63211    0.22446    1.000
    N5281    N        0.82766    0.62858    0.19706    1.000
    Si5282   Si       0.80294    0.61545    0.23212    1.000
    Si5283   Si       0.83165    0.65313    0.16051    1.000
    Si5284   Si       0.74364    0.60907    0.19259    1.000
    N5285    N        0.98151    0.64600    0.23965    1.000
    Si5286   Si       0.89657    0.61671    0.12274    1.000
    N5287    N        0.90957    0.64103    0.21014    1.000
    N5288    N        0.96985    0.65169    0.17419    1.000
    N5289    N        0.87556    0.63447    0.15755    1.000
    Si5290   Si       0.87179    0.61543    0.19859    1.000
    Si5291   Si       0.95242    0.63356    0.21041    1.000
    N5292    N        0.80939    0.61833    0.27708    1.000
    Si5293   Si       0.77329    0.60692    0.29950    1.000
    N5294    N        0.77471    0.61821    0.34186    1.000
    Si5295   Si       0.80621    0.64296    0.36187    1.000
    Si5296   Si       0.91977    0.61697    0.30593    1.000
    N5297    N        0.92782    0.61785    0.34930    1.000
    Si5298   Si       0.88584    0.65370    0.24985    1.000
    N5299    N        0.90996    0.65296    0.28705    1.000
    N5300    N        0.86791    0.61415    0.24483    1.000
    N5301    N        0.84137    0.62622    0.38565    1.000
    Si5302   Si       0.78788    0.61678    0.48198    1.000
    N5303    N        0.82804    0.63449    0.47427    1.000
    N5304    N        0.76602    0.59826    0.44898    1.000
    Si5305   Si       0.98689    0.63767    0.46598    1.000
    N5306    N        0.90347    0.64959    0.48775    1.000
    Si5307   Si       0.93560    0.65197    0.37309    1.000
    N5308    N        0.97927    0.65389    0.38624    1.000
    N5309    N        0.90743    0.64823    0.40754    1.000
    N5310    N        0.87986    0.59981    0.44150    1.000
    Si5311   Si       0.90978    0.62975    0.44687    1.000
    N5312    N        0.94925    0.61762    0.45516    1.000
    N5313    N        0.76506    0.61612    0.57840    1.000
    Si5314   Si       0.75015    0.62876    0.53935    1.000
    N5315    N        0.76559    0.64698    0.50422    1.000
    Si5316   Si       0.80306    0.60113    0.59757    1.000
    N5317    N        0.89965    0.63179    0.55277    1.000
    Si5318   Si       0.91103    0.61506    0.51362    1.000
    N5319    N        0.96125    0.60602    0.62056    1.000
    Si5320   Si       0.87832    0.60220    0.57791    1.000
    N5321    N        0.89257    0.61494    0.61948    1.000
    Si5322   Si       0.98935    0.61154    0.53768    1.000
    N5323    N        0.82139    0.62983    0.62634    1.000
    N5324    N        0.74619    0.60555    0.73393    1.000
    N5325    N        0.81836    0.61921    0.72372    1.000
    Si5326   Si       0.77640    0.63185    0.71780    1.000
    N5327    N        0.76547    0.63373    0.67442    1.000
    Si5328   Si       0.79581    0.65285    0.65146    1.000
    Si5329   Si       0.86248    0.64526    0.63049    1.000
    Si5330   Si       0.98088    0.64570    0.66943    1.000
    Si5331   Si       0.93150    0.63754    0.62255    1.000
    Si5332   Si       0.88887    0.64697    0.70202    1.000
    N5333    N        0.93763    0.65172    0.66214    1.000
    N5334    N        0.88156    0.60645    0.68457    1.000
    N5335    N        0.80192    0.63856    0.84523    1.000
    Si5336   Si       0.84011    0.63195    0.76156    1.000
    Si5337   Si       0.83683    0.61645    0.82909    1.000
    N5338    N        0.74621    0.60864    0.84742    1.000
    N5339    N        0.84205    0.60099    0.78963    1.000
    N5340    N        0.86072    0.65150    0.83246    1.000
    N5341    N        0.74998    0.65491    0.78804    1.000
    Si5342   Si       0.76178    0.65661    0.82910    1.000
    Si5343   Si       0.98253    0.60952    0.77094    1.000
    N5344    N        0.95753    0.64063    0.75514    1.000
    N5345    N        0.91491    0.62494    0.85642    1.000
    N5346    N        0.87987    0.63639    0.74518    1.000
    Si5347   Si       0.78116    0.61689    0.87624    1.000
    N5348    N        0.76925    0.62699    0.91516    1.000
    Si5349   Si       0.77912    0.61112    0.95650    1.000
    N5350    N        0.80125    0.62183    0.99301    1.000
    Si5351   Si       0.92710    0.61502    0.89793    1.000
    Si5352   Si       0.87690    0.63313    0.95228    1.000
    N5353    N        0.89284    0.60725    0.92391    1.000
    N5354    N        0.96783    0.59725    0.89180    1.000
    Si5355   Si       0.98371    0.63444    0.90484    1.000
    N5356    N        0.86964    0.60943    0.98991    1.000
    Si5357   Si       0.83189    0.70010    0.10629    1.000
    N5358    N        0.85647    0.66566    0.09545    1.000
    N5359    N        0.82635    0.68128    0.00371    1.000
    N5360    N        0.74446    0.67824    0.10714    1.000
    N5361    N        0.80288    0.71466    0.07824    1.000
    Si5362   Si       0.76315    0.71441    0.09352    1.000
    Si5363   Si       0.86817    0.69841    0.00821    1.000
    Si5364   Si       0.89263    0.66728    0.07012    1.000
    Si5365   Si       0.95177    0.69108    0.02046    1.000
    N5366    N        0.91678    0.70514    0.07900    1.000
    N5367    N        0.87583    0.65821    0.03082    1.000
    Si5368   Si       0.93274    0.71293    0.11911    1.000
    N5369    N        0.74370    0.69483    0.17888    1.000
    N5370    N        0.81037    0.68671    0.14249    1.000
    Si5371   Si       0.85233    0.70267    0.22684    1.000
    N5372    N        0.85371    0.68949    0.18617    1.000
    Si5373   Si       0.77874    0.71312    0.16198    1.000
    Si5374   Si       0.96116    0.69505    0.16848    1.000
    N5375    N        0.96205    0.70615    0.21033    1.000
    N5376    N        0.91797    0.69592    0.15882    1.000
    Si5377   Si       0.89436    0.67083    0.18221    1.000
    N5378    N        0.97623    0.70386    0.12927    1.000
    N5379    N        0.89647    0.69510    0.23343    1.000
    N5380    N        0.77749    0.68198    0.27566    1.000
    N5381    N        0.84338    0.67078    0.25541    1.000
    N5382    N        0.82457    0.66661    0.33011    1.000
    Si5383   Si       0.85076    0.70447    0.33568    1.000
    Si5384   Si       0.81663    0.66227    0.28586    1.000
    Si5385   Si       0.74815    0.65639    0.25537    1.000
    N5386    N        0.93765    0.68495    0.34482    1.000
    Si5387   Si       0.92048    0.69193    0.30551    1.000
    Si5388   Si       0.98060    0.68982    0.33649    1.000
    N5389    N        0.87575    0.68820    0.36693    1.000
    N5390    N        0.98399    0.65771    0.30420    1.000
    N5391    N        0.88366    0.71378    0.30632    1.000
    Si5392   Si       0.73945    0.67401    0.39728    1.000
    N5393    N        0.84540    0.68351    0.42775    1.000
    Si5394   Si       0.79000    0.70072    0.41895    1.000
    N5395    N        0.79071    0.69436    0.46259    1.000
    N5396    N        0.78369    0.66664    0.39188    1.000
    Si5397   Si       0.83043    0.67661    0.46713    1.000
    N5398    N        0.74767    0.71391    0.41303    1.000
    Si5399   Si       0.98009    0.68846    0.41309    1.000
    N5400    N        0.98367    0.67913    0.45474    1.000
    Si5401   Si       0.86759    0.65862    0.39799    1.000
    Si5402   Si       0.90929    0.71448    0.37572    1.000
    Si5403   Si       0.97197    0.70832    0.48292    1.000
    N5404    N        0.94288    0.70794    0.40645    1.000
    N5405    N        0.92847    0.71255    0.47529    1.000
    N5406    N        0.74735    0.69956    0.60437    1.000
    N5407    N        0.76219    0.70333    0.53544    1.000
    Si5408   Si       0.76036    0.69109    0.49526    1.000
    N5409    N        0.85480    0.70043    0.49374    1.000
    N5410    N        0.86772    0.67305    0.59566    1.000
    N5411    N        0.98221    0.69676    0.52557    1.000
    Si5412   Si       0.97603    0.68316    0.56716    1.000
    Si5413   Si       0.90306    0.67219    0.56886    1.000
    N5414    N        0.93934    0.67043    0.59169    1.000
    N5415    N        0.90716    0.70320    0.53900    1.000
    Si5416   Si       0.89843    0.69041    0.49902    1.000
    N5417    N        0.80846    0.69003    0.66855    1.000
    Si5418   Si       0.85013    0.70498    0.67012    1.000
    Si5419   Si       0.77955    0.70647    0.69716    1.000
    N5420    N        0.77980    0.67471    0.72802    1.000
    N5421    N        0.74198    0.70658    0.67778    1.000
    N5422    N        0.91290    0.67997    0.72091    1.000
    N5423    N        0.98191    0.68452    0.69470    1.000
    Si5424   Si       0.98212    0.67354    0.73814    1.000
    Si5425   Si       0.93645    0.68871    0.68479    1.000
    N5426    N        0.86833    0.66612    0.66825    1.000
    N5427    N        0.78545    0.69659    0.82118    1.000
    Si5428   Si       0.82630    0.67803    0.82297    1.000
    Si5429   Si       0.78723    0.69690    0.77121    1.000
    N5430    N        0.82159    0.66626    0.78095    1.000
    N5431    N        0.98630    0.69475    0.82495    1.000
    N5432    N        0.91979    0.67579    0.80012    1.000
    Si5433   Si       0.90109    0.66143    0.83802    1.000
    Si5434   Si       0.95155    0.70543    0.79847    1.000
    N5435    N        0.97014    0.70941    0.76114    1.000
    Si5436   Si       0.91610    0.65658    0.75958    1.000
    Si5437   Si       0.84272    0.70591    0.93426    1.000
    N5438    N        0.85199    0.66411    0.93649    1.000
    Si5439   Si       0.79690    0.70859    0.98941    1.000
    N5440    N        0.75399    0.70701    0.99542    1.000
    Si5441   Si       0.94308    0.67204    0.95342    1.000
    N5442    N        0.89868    0.69226    0.87263    1.000
    N5443    N        0.97201    0.67894    0.98483    1.000
    N5444    N        0.91023    0.65407    0.97256    1.000
    Si5445   Si       0.93005    0.69525    0.90120    1.000
    N5446    N        0.94291    0.65330    0.91429    1.000
    N5447    N        0.79649    0.74632    0.01843    1.000
    Si5448   Si       0.82289    0.74220    0.05292    1.000
    Si5449   Si       0.75286    0.74164    0.02248    1.000
    N5450    N        0.86146    0.72458    0.04342    1.000
    N5451    N        0.74216    0.73863    0.06479    1.000
    Si5452   Si       0.90393    0.73258    0.04976    1.000
    Si5453   Si       0.98484    0.76168    0.03866    1.000
    N5454    N        0.97939    0.71759    0.04101    1.000
    N5455    N        0.91541    0.71459    0.01173    1.000
    N5456    N        0.84843    0.73555    0.12461    1.000
    Si5457   Si       0.80756    0.75820    0.22533    1.000
    N5458    N        0.80414    0.73382    0.18829    1.000
    N5459    N        0.76302    0.73946    0.13108    1.000
    Si5460   Si       0.84293    0.72583    0.16621    1.000
    N5461    N        0.84734    0.74328    0.24165    1.000
    N5462    N        0.91865    0.76022    0.23523    1.000
    N5463    N        0.87196    0.75432    0.18114    1.000
    Si5464   Si       0.93221    0.71795    0.23807    1.000
    Si5465   Si       0.87878    0.76669    0.22180    1.000
    N5466    N        0.92292    0.75445    0.12664    1.000
    N5467    N        0.85242    0.74992    0.35026    1.000
    N5468    N        0.77933    0.75174    0.25799    1.000
    Si5469   Si       0.85667    0.74133    0.28411    1.000
    N5470    N        0.74648    0.72942    0.31751    1.000
    Si5471   Si       0.77859    0.72203    0.28986    1.000
    N5472    N        0.82194    0.72510    0.30192    1.000
    Si5473   Si       0.74887    0.77051    0.32914    1.000
    N5474    N        0.92055    0.75177    0.35380    1.000
    Si5475   Si       0.96138    0.76217    0.35403    1.000
    N5476    N        0.98277    0.73306    0.33112    1.000
    Si5477   Si       0.98594    0.73593    0.28732    1.000
    Si5478   Si       0.88686    0.77457    0.33759    1.000
    N5479    N        0.94828    0.71255    0.27788    1.000
    N5480    N        0.81291    0.73247    0.39745    1.000
    N5481    N        0.83911    0.75333    0.45389    1.000
    Si5482   Si       0.81771    0.76526    0.37026    1.000
    Si5483   Si       0.84986    0.72675    0.41969    1.000
    Si5484   Si       0.92372    0.73274    0.43721    1.000
    N5485    N        0.88898    0.73550    0.41005    1.000
    N5486    N        0.97526    0.77194    0.39376    1.000
    Si5487   Si       0.82935    0.75929    0.56171    1.000
    N5488    N        0.76493    0.76417    0.57349    1.000
    Si5489   Si       0.77008    0.72129    0.57366    1.000
    N5490    N        0.81249    0.72294    0.57978    1.000
    N5491    N        0.81915    0.76710    0.52284    1.000
    Si5492   Si       0.84610    0.74462    0.49566    1.000
    Si5493   Si       0.84874    0.71232    0.59802    1.000
    N5494    N        0.93467    0.77216    0.55365    1.000
    N5495    N        0.86997    0.74660    0.57436    1.000
    N5496    N        0.98309    0.72439    0.58438    1.000
    Si5497   Si       0.90142    0.74576    0.54332    1.000
    Si5498   Si       0.95746    0.75899    0.58921    1.000
    N5499    N        0.88641    0.76167    0.50622    1.000
    Si5500   Si       0.88345    0.75881    0.61410    1.000
    N5501    N        0.92507    0.75257    0.61842    1.000
    Si5502   Si       0.74223    0.72644    0.63867    1.000
    N5503    N        0.77275    0.75674    0.64073    1.000
    Si5504   Si       0.82803    0.74825    0.73222    1.000
    N5505    N        0.79312    0.74535    0.70508    1.000
    N5506    N        0.85735    0.72208    0.71133    1.000
    N5507    N        0.86193    0.72741    0.63499    1.000
    Si5508   Si       0.89944    0.72308    0.72026    1.000
    N5509    N        0.92296    0.72976    0.68418    1.000
    N5510    N        0.98373    0.74539    0.65341    1.000
    Si5511   Si       0.94169    0.75980    0.65924    1.000
    N5512    N        0.81443    0.73272    0.76955    1.000
    Si5513   Si       0.82893    0.74656    0.80957    1.000
    Si5514   Si       0.76901    0.73050    0.84326    1.000
    N5515    N        0.79728    0.76203    0.83523    1.000
    N5516    N        0.74923    0.71718    0.76324    1.000
    N5517    N        0.84718    0.71468    0.83182    1.000
    N5518    N        0.94314    0.74728    0.80995    1.000
    Si5519   Si       0.93954    0.75588    0.85319    1.000
    N5520    N        0.89509    0.75917    0.86080    1.000
    N5521    N        0.90804    0.75403    0.74877    1.000
    Si5522   Si       0.93781    0.77096    0.77403    1.000
    Si5523   Si       0.87081    0.72462    0.86693    1.000
    Si5524   Si       0.77060    0.73547    0.92368    1.000
    N5525    N        0.84643    0.73377    0.90175    1.000
    N5526    N        0.76174    0.72015    0.88423    1.000
    N5527    N        0.80219    0.71748    0.94808    1.000
    N5528    N        0.93500    0.71446    0.93965    1.000
    N5529    N        0.86780    0.71919    0.96904    1.000
    Si5530   Si       0.90849    0.73402    0.97006    1.000
    N5531    N        0.95517    0.72543    0.88014    1.000
    Si5532   Si       0.96997    0.73656    0.92295    1.000
    Si5533   Si       0.75061    0.81108    0.00656    1.000
    N5534    N        0.85662    0.79636    0.00903    1.000
    N5535    N        0.83472    0.78052    0.07348    1.000
    Si5536   Si       0.83819    0.77755    0.11536    1.000
    N5537    N        0.77221    0.83196    0.03972    1.000
    Si5538   Si       0.86988    0.80027    0.05293    1.000
    Si5539   Si       0.93100    0.78411    0.09390    1.000
    N5540    N        0.97078    0.78174    0.00375    1.000
    N5541    N        0.96794    0.78182    0.07228    1.000
    N5542    N        0.90391    0.77465    0.06206    1.000
    N5543    N        0.95187    0.81449    0.11991    1.000
    Si5544   Si       0.83431    0.82607    0.21664    1.000
    Si5545   Si       0.76194    0.78096    0.13657    1.000
    Si5546   Si       0.76876    0.81808    0.19885    1.000
    N5547    N        0.80284    0.79541    0.13651    1.000
    N5548    N        0.80276    0.79761    0.21263    1.000
    N5549    N        0.74262    0.79448    0.17307    1.000
    N5550    N        0.74271    0.81646    0.23619    1.000
    N5551    N        0.91707    0.80424    0.17713    1.000
    N5552    N        0.87503    0.79803    0.12376    1.000
    N5553    N        0.96366    0.81234    0.21765    1.000
    N5554    N        0.86750    0.80530    0.23553    1.000
    Si5555   Si       0.96068    0.81238    0.17288    1.000
    Si5556   Si       0.89692    0.77577    0.15322    1.000
    N5557    N        0.78704    0.78394    0.34610    1.000
    Si5558   Si       0.79196    0.82720    0.33917    1.000
    N5559    N        0.73884    0.79464    0.29360    1.000
    Si5560   Si       0.74263    0.77506    0.25673    1.000
    Si5561   Si       0.75602    0.83133    0.27664    1.000
    Si5562   Si       0.98629    0.80890    0.30446    1.000
    Si5563   Si       0.94600    0.78996    0.25042    1.000
    N5564    N        0.87498    0.77972    0.29502    1.000
    N5565    N        0.88961    0.81395    0.35709    1.000
    N5566    N        0.95688    0.80333    0.33534    1.000
    Si5567   Si       0.88291    0.81500    0.27401    1.000
    N5568    N        0.92565    0.81959    0.27396    1.000
    Si5569   Si       0.93103    0.83109    0.35558    1.000
    N5570    N        0.97752    0.77708    0.27649    1.000
    Si5571   Si       0.83606    0.79603    0.44033    1.000
    N5572    N        0.83165    0.79824    0.39661    1.000
    N5573    N        0.80415    0.81398    0.46444    1.000
    Si5574   Si       0.85476    0.83075    0.37671    1.000
    Si5575   Si       0.90551    0.78841    0.47685    1.000
    N5576    N        0.92970    0.77354    0.44607    1.000
    N5577    N        0.97822    0.81829    0.45580    1.000
    Si5578   Si       0.95654    0.79879    0.42063    1.000
    N5579    N        0.87503    0.81418    0.45813    1.000
    N5580    N        0.82052    0.79239    0.59079    1.000
    Si5581   Si       0.77853    0.78562    0.60737    1.000
    N5582    N        0.75420    0.79177    0.50678    1.000
    Si5583   Si       0.85511    0.81723    0.59364    1.000
    Si5584   Si       0.79682    0.80026    0.50593    1.000
    Si5585   Si       0.92513    0.81430    0.54554    1.000
    N5586    N        0.92714    0.81791    0.50264    1.000
    N5587    N        0.88785    0.82184    0.56456    1.000
    N5588    N        0.98120    0.79423    0.60511    1.000
    N5589    N        0.76134    0.82116    0.62620    1.000
    Si5590   Si       0.81232    0.81996    0.72243    1.000
    N5591    N        0.80014    0.81253    0.68106    1.000
    N5592    N        0.77428    0.82203    0.74059    1.000
    N5593    N        0.83640    0.78982    0.74221    1.000
    Si5594   Si       0.77509    0.77647    0.67872    1.000
    Si5595   Si       0.73937    0.82558    0.71478    1.000
    Si5596   Si       0.97409    0.82657    0.67263    1.000
    N5597    N        0.93618    0.80462    0.66702    1.000
    N5598    N        0.87567    0.79972    0.62854    1.000
    Si5599   Si       0.89842    0.82617    0.65322    1.000
    Si5600   Si       0.81348    0.80389    0.83805    1.000
    Si5601   Si       0.84582    0.80784    0.77996    1.000
    N5602    N        0.85412    0.78379    0.81504    1.000
    N5603    N        0.81067    0.82485    0.79919    1.000
    Si5604   Si       0.74504    0.83028    0.84382    1.000
    N5605    N        0.78541    0.83006    0.85825    1.000
    N5606    N        0.74191    0.81780    0.80286    1.000
    Si5607   Si       0.87415    0.79528    0.85207    1.000
    N5608    N        0.93018    0.81511    0.78044    1.000
    Si5609   Si       0.96606    0.82317    0.74969    1.000
    N5610    N        0.97354    0.77986    0.74859    1.000
    N5611    N        0.83827    0.80333    0.87560    1.000
    Si5612   Si       0.82165    0.80575    0.98697    1.000
    N5613    N        0.78039    0.80062    0.97780    1.000
    N5614    N        0.84431    0.79188    0.94859    1.000
    Si5615   Si       0.76995    0.80833    0.93533    1.000
    N5616    N        0.78837    0.77555    0.91478    1.000
    Si5617   Si       0.83104    0.77336    0.91153    1.000
    Si5618   Si       0.95375    0.79643    0.96827    1.000
    N5619    N        0.91440    0.77584    0.96854    1.000
    Si5620   Si       0.87916    0.80190    0.97175    1.000
    N5621    N        0.95018    0.79359    0.86926    1.000
    N5622    N        0.97704    0.77500    0.93977    1.000
    N5623    N        0.77365    0.86003    0.10745    1.000
    Si5624   Si       0.79254    0.86694    0.02648    1.000
    Si5625   Si       0.81125    0.88185    0.09662    1.000
    N5626    N        0.83532    0.85007    0.11597    1.000
    Si5627   Si       0.75355    0.83404    0.07854    1.000
    N5628    N        0.81977    0.84904    0.99575    1.000
    N5629    N        0.81592    0.88981    0.05466    1.000
    N5630    N        0.94484    0.88042    0.08966    1.000
    Si5631   Si       0.91128    0.87259    0.06032    1.000
    N5632    N        0.92763    0.87746    0.02170    1.000
    Si5633   Si       0.87621    0.83857    0.11032    1.000
    N5634    N        0.88982    0.83708    0.06811    1.000
    Si5635   Si       0.79922    0.88625    0.20517    1.000
    N5636    N        0.81549    0.86087    0.23621    1.000
    Si5637   Si       0.75380    0.87174    0.14462    1.000
    N5638    N        0.78245    0.85547    0.17663    1.000
    Si5639   Si       0.81596    0.83612    0.15098    1.000
    N5640    N        0.85038    0.83690    0.17749    1.000
    N5641    N        0.90762    0.86750    0.20752    1.000
    Si5642   Si       0.94335    0.88578    0.19235    1.000
    Si5643   Si       0.94407    0.85717    0.12707    1.000
    N5644    N        0.90336    0.85770    0.13918    1.000
    Si5645   Si       0.89378    0.83879    0.17726    1.000
    N5646    N        0.96619    0.86139    0.16380    1.000
    N5647    N        0.82484    0.85096    0.35356    1.000
    Si5648   Si       0.82494    0.86369    0.27740    1.000
    N5649    N        0.75322    0.84211    0.35643    1.000
    N5650    N        0.79469    0.83633    0.29553    1.000
    N5651    N        0.73896    0.87027    0.27386    1.000
    N5652    N        0.86974    0.85657    0.27590    1.000
    N5653    N        0.93523    0.86708    0.33272    1.000
    Si5654   Si       0.93995    0.85651    0.29139    1.000
    N5655    N        0.98278    0.84949    0.28377    1.000
    Si5656   Si       0.89453    0.87890    0.24759    1.000
    Si5657   Si       0.97401    0.88689    0.25646    1.000
    N5658    N        0.93145    0.89158    0.26612    1.000
    Si5659   Si       0.75917    0.88065    0.37846    1.000
    N5660    N        0.77435    0.88087    0.41876    1.000
    Si5661   Si       0.78119    0.84947    0.45083    1.000
    N5662    N        0.78749    0.88289    0.47951    1.000
    N5663    N        0.74086    0.83490    0.44905    1.000
    N5664    N        0.85912    0.87601    0.47612    1.000
    N5665    N        0.94626    0.83433    0.39678    1.000
    Si5666   Si       0.95107    0.84421    0.47912    1.000
    N5667    N        0.87028    0.85869    0.40625    1.000
    N5668    N        0.92576    0.86738    0.45030    1.000
    Si5669   Si       0.88358    0.85438    0.44861    1.000
    Si5670   Si       0.94637    0.87471    0.41478    1.000
    N5671    N        0.84140    0.85828    0.59260    1.000
    Si5672   Si       0.81229    0.86288    0.55924    1.000
    N5673    N        0.78362    0.88314    0.58793    1.000
    N5674    N        0.80326    0.83350    0.53202    1.000
    Si5675   Si       0.81894    0.88893    0.61392    1.000
    N5676    N        0.97739    0.86331    0.50627    1.000
    Si5677   Si       0.90533    0.85825    0.58196    1.000
    N5678    N        0.94649    0.84564    0.57011    1.000
    Si5679   Si       0.98111    0.87238    0.54703    1.000
    Si5680   Si       0.97924    0.83731    0.59862    1.000
    Si5681   Si       0.83599    0.87104    0.68613    1.000
    N5682    N        0.82905    0.86085    0.72708    1.000
    N5683    N        0.80721    0.87329    0.65255    1.000
    Si5684   Si       0.77730    0.84353    0.65840    1.000
    N5685    N        0.74752    0.85842    0.68749    1.000
    N5686    N        0.89355    0.88741    0.73943    1.000
    N5687    N        0.97649    0.85840    0.63915    1.000
    Si5688   Si       0.96247    0.88706    0.71024    1.000
    Si5689   Si       0.94024    0.88559    0.64092    1.000
    N5690    N        0.87563    0.84921    0.68185    1.000
    N5691    N        0.96791    0.84464    0.71131    1.000
    N5692    N        0.90991    0.85758    0.62540    1.000
    Si5693   Si       0.89222    0.88743    0.69735    1.000
    N5694    N        0.93037    0.89374    0.68184    1.000
    N5695    N        0.76657    0.87846    0.78607    1.000
    Si5696   Si       0.85521    0.87630    0.75773    1.000
    Si5697   Si       0.77336    0.83542    0.78217    1.000
    N5698    N        0.87016    0.84309    0.78178    1.000
    N5699    N        0.97538    0.85069    0.85500    1.000
    N5700    N        0.93310    0.87715    0.80158    1.000
    Si5701   Si       0.97226    0.86643    0.81416    1.000
    Si5702   Si       0.90584    0.84264    0.80224    1.000
    Si5703   Si       0.88753    0.87126    0.86713    1.000
    N5704    N        0.89946    0.83162    0.84493    1.000
    Si5705   Si       0.84858    0.87358    0.97565    1.000
    N5706    N        0.85114    0.86843    0.89183    1.000
    N5707    N        0.78928    0.84468    0.92307    1.000
    Si5708   Si       0.81647    0.84076    0.88904    1.000
    Si5709   Si       0.78460    0.88470    0.93496    1.000
    Si5710   Si       0.94001    0.83354    0.87114    1.000
    N5711    N        0.92180    0.86749    0.89197    1.000
    N5712    N        0.94913    0.83836    0.96357    1.000
    Si5713   Si       0.98574    0.86133    0.95745    1.000
    N5714    N        0.88056    0.84522    0.97062    1.000
    Si5715   Si       0.91955    0.86340    0.98114    1.000
    N5716    N        0.98160    0.89205    0.92520    1.000
    N5717    N        0.98400    0.89190    0.99011    1.000
    Si5718   Si       0.84037    0.92188    0.03382    1.000
    Si5719   Si       0.76625    0.93799    0.00711    1.000
    N5720    N        0.76039    0.89448    0.01453    1.000
    N5721    N        0.80907    0.93731    0.00590    1.000
    N5722    N        0.81815    0.91678    0.12195    1.000
    N5723    N        0.86526    0.90514    0.00307    1.000
    N5724    N        0.97465    0.93239    0.04894    1.000
    Si5725   Si       0.97080    0.91420    0.08962    1.000
    Si5726   Si       0.95516    0.91184    0.01489    1.000
    N5727    N        0.88646    0.90613    0.06900    1.000
    Si5728   Si       0.87853    0.94383    0.08817    1.000
    N5729    N        0.92804    0.94549    0.00422    1.000
    N5730    N        0.96198    0.94601    0.11722    1.000
    Si5731   Si       0.85033    0.93640    0.21996    1.000
    N5732    N        0.77157    0.90852    0.22755    1.000
    N5733    N        0.75610    0.91641    0.14539    1.000
    N5734    N        0.83092    0.91255    0.19011    1.000
    Si5735   Si       0.84207    0.93776    0.15539    1.000
    Si5736   Si       0.78461    0.94668    0.13045    1.000
    Si5737   Si       0.90565    0.94641    0.16138    1.000
    N5738    N        0.87901    0.93522    0.13077    1.000
    N5739    N        0.97848    0.89840    0.21632    1.000
    Si5740   Si       0.97681    0.94073    0.19372    1.000
    N5741    N        0.93883    0.92563    0.17848    1.000
    N5742    N        0.78049    0.90545    0.35064    1.000
    N5743    N        0.82556    0.90106    0.29993    1.000
    Si5744   Si       0.75291    0.93282    0.32974    1.000
    Si5745   Si       0.81657    0.94153    0.28552    1.000
    N5746    N        0.85454    0.91622    0.36018    1.000
    N5747    N        0.77290    0.94426    0.29240    1.000
    Si5748   Si       0.76160    0.94786    0.24932    1.000
    Si5749   Si       0.82231    0.89398    0.34298    1.000
    N5750    N        0.96670    0.93122    0.35267    1.000
    N5751    N        0.90645    0.93334    0.31859    1.000
    Si5752   Si       0.93140    0.90878    0.34422    1.000
    Si5753   Si       0.91051    0.93055    0.27530    1.000
    N5754    N        0.87888    0.92043    0.24806    1.000
    Si5755   Si       0.87165    0.94997    0.33972    1.000
    Si5756   Si       0.77468    0.91406    0.44612    1.000
    N5757    N        0.82441    0.93876    0.48494    1.000
    Si5758   Si       0.85888    0.94773    0.46245    1.000
    N5759    N        0.98083    0.90008    0.41359    1.000
    N5760    N        0.86756    0.92477    0.42477    1.000
    N5761    N        0.91967    0.90185    0.38651    1.000
    Si5762   Si       0.96044    0.93636    0.39570    1.000
    Si5763   Si       0.87614    0.89914    0.39388    1.000
    N5764    N        0.84508    0.92360    0.60777    1.000
    N5765    N        0.76730    0.93648    0.52210    1.000
    Si5766   Si       0.75619    0.89646    0.50597    1.000
    N5767    N        0.82451    0.89895    0.53845    1.000
    Si5768   Si       0.85675    0.91611    0.56516    1.000
    Si5769   Si       0.81084    0.94357    0.52921    1.000
    Si5770   Si       0.74351    0.89272    0.57913    1.000
    N5771    N        0.74098    0.93528    0.58672    1.000
    Si5772   Si       0.82613    0.89441    0.49469    1.000
    Si5773   Si       0.93201    0.92241    0.57055    1.000
    N5774    N        0.97451    0.91178    0.56028    1.000
    N5775    N        0.89645    0.89753    0.56426    1.000
    N5776    N        0.93902    0.91978    0.61429    1.000
    Si5777   Si       0.83662    0.94493    0.70139    1.000
    Si5778   Si       0.76275    0.94486    0.73073    1.000
    N5779    N        0.85475    0.90953    0.68964    1.000
    N5780    N        0.77084    0.91919    0.83144    1.000
    Si5781   Si       0.79577    0.91139    0.79487    1.000
    N5782    N        0.78720    0.94500    0.76597    1.000
    N5783    N        0.83726    0.90375    0.78596    1.000
    Si5784   Si       0.86674    0.92852    0.80739    1.000
    N5785    N        0.87831    0.90370    0.84085    1.000
    Si5786   Si       0.92403    0.90223    0.76770    1.000
    N5787    N        0.90175    0.93532    0.78378    1.000
    N5788    N        0.96012    0.90946    0.74667    1.000
    Si5789   Si       0.76851    0.93326    0.87344    1.000
    Si5790   Si       0.82837    0.94276    0.96711    1.000
    Si5791   Si       0.83587    0.90596    0.90476    1.000
    N5792    N        0.82675    0.90135    0.94701    1.000
    N5793    N        0.79301    0.90448    0.89422    1.000
    N5794    N        0.85696    0.94380    0.89487    1.000
    N5795    N        0.74191    0.88853    0.94330    1.000
    Si5796   Si       0.93904    0.90071    0.91731    1.000
    Si5797   Si       0.89606    0.92703    0.98045    1.000
    N5798    N        0.93180    0.93622    0.89183    1.000
    N5799    N        0.91862    0.90009    0.95456    1.000
    Si5800   Si       0.82174    0.98576    0.07112    1.000
    N5801    N        0.78454    0.96781    0.09130    1.000
    Si5802   Si       0.75857    0.98540    0.06189    1.000
    N5803    N        0.84878    0.95541    0.05988    1.000
    N5804    N        0.79450    0.00532    0.04290    1.000
    N5805    N        0.73986    0.95445    0.03846    1.000
    N5806    N        0.90724    0.97619    0.08691    1.000
    Si5807   Si       0.92842    0.98755    0.01268    1.000
    N5808    N        0.96778    0.00237    0.02887    1.000
    Si5809   Si       0.93882    0.98307    0.11618    1.000
    N5810    N        0.81182    0.96978    0.15668    1.000
    Si5811   Si       0.80494    0.99686    0.23187    1.000
    N5812    N        0.76263    0.99009    0.24127    1.000
    N5813    N        0.87182    0.95855    0.18887    1.000
    Si5814   Si       0.88621    0.00062    0.18269    1.000
    N5815    N        0.91533    0.98793    0.15269    1.000
    N5816    N        0.84663    0.96375    0.30702    1.000
    N5817    N        0.78198    0.98988    0.35269    1.000
    Si5818   Si       0.85095    0.00410    0.29487    1.000
    N5819    N        0.81769    0.95508    0.24366    1.000
    Si5820   Si       0.97330    0.98073    0.26428    1.000
    N5821    N        0.93186    0.96440    0.26040    1.000
    N5822    N        0.88071    0.97995    0.36947    1.000
    Si5823   Si       0.91526    0.00514    0.25462    1.000
    N5824    N        0.74212    0.98622    0.48012    1.000
    Si5825   Si       0.76048    0.97287    0.38791    1.000
    Si5826   Si       0.76953    0.98991    0.44584    1.000
    N5827    N        0.77724    0.95169    0.42444    1.000
    N5828    N        0.74501    0.00455    0.41138    1.000
    N5829    N        0.86153    0.98368    0.43866    1.000
    Si5830   Si       0.98010    0.99455    0.49145    1.000
    Si5831   Si       0.88551    0.96234    0.40877    1.000
    N5832    N        0.89723    0.95458    0.48478    1.000
    N5833    N        0.97292    0.95129    0.47232    1.000
    Si5834   Si       0.93205    0.96545    0.46110    1.000
    N5835    N        0.92816    0.95876    0.41771    1.000
    N5836    N        0.94351    0.00741    0.46801    1.000
    Si5837   Si       0.84506    0.99305    0.55656    1.000
    N5838    N        0.79951    0.97686    0.55634    1.000
    N5839    N        0.85268    0.99351    0.60022    1.000
    Si5840   Si       0.75600    0.96340    0.55566    1.000
    N5841    N        0.85553    0.95199    0.54082    1.000
    N5842    N        0.74687    0.00522    0.57583    1.000
    Si5843   Si       0.95875    0.98874    0.56050    1.000
    N5844    N        0.97183    0.97083    0.59898    1.000
    Si5845   Si       0.89284    0.96732    0.52508    1.000
    N5846    N        0.92586    0.95977    0.55194    1.000
    Si5847   Si       0.85910    0.96030    0.62714    1.000
    N5848    N        0.76730    0.97918    0.63876    1.000
    Si5849   Si       0.79788    0.98246    0.66968    1.000
    N5850    N        0.84157    0.97216    0.66483    1.000
    N5851    N        0.84741    0.96841    0.73468    1.000
    Si5852   Si       0.73906    0.94892    0.62852    1.000
    Si5853   Si       0.85351    0.01191    0.68496    1.000
    N5854    N        0.79286    0.95142    0.69938    1.000
    Si5855   Si       0.87974    0.00066    0.73795    1.000
    N5856    N        0.89891    0.99554    0.69927    1.000
    N5857    N        0.90052    0.97306    0.62854    1.000
    N5858    N        0.95557    0.96586    0.66797    1.000
    Si5859   Si       0.93545    0.00251    0.67739    1.000
    Si5860   Si       0.94265    0.96147    0.62760    1.000
    N5861    N        0.84475    0.96944    0.80162    1.000
    Si5862   Si       0.81901    0.97383    0.76651    1.000
    Si5863   Si       0.87381    0.99976    0.81264    1.000
    N5864    N        0.89158    0.97582    0.84362    1.000
    N5865    N        0.96468    0.98956    0.85605    1.000
    Si5866   Si       0.98094    0.99141    0.81602    1.000
    Si5867   Si       0.76617    0.00247    0.87271    1.000
    N5868    N        0.79255    0.96992    0.87445    1.000
    Si5869   Si       0.82783    0.97644    0.89955    1.000
    N5870    N        0.80869    0.96883    0.93824    1.000
    Si5871   Si       0.77205    0.98995    0.94778    1.000
    N5872    N        0.75178    0.95636    0.96913    1.000
    N5873    N        0.86933    0.95454    0.96386    1.000
    N5874    N        0.97338    0.97655    0.92731    1.000
    Si5875   Si       0.96912    0.96190    0.88725    1.000
    N5876    N        0.90846    0.99756    0.90860    1.000
    Si5877   Si       0.89495    0.96176    0.88314    1.000
    Si5878   Si       0.94390    0.00824    0.93281    1.000
    N5879    N        0.92942    0.00506    0.97303    1.000
