# CIF file generated by openbabel 3.1.1, see https://openbabel.org
data_I
_chemical_name_common '3.01-17.aims'
_cell_length_a 39.9366
_cell_length_b 39.9366
_cell_length_c 39.9366
_cell_angle_alpha 90
_cell_angle_beta 90
_cell_angle_gamma 90
loop_
    _atom_site_label
    _atom_site_type_symbol
    _atom_site_fract_x
    _atom_site_fract_y
    _atom_site_fract_z
    _atom_site_occupancy
    Si0      Si       0.01735    0.10117    0.08684    1.000
    N1       N        0.02086    0.11583    0.04482    1.000
    Si2      Si       0.03180    0.03859    0.07462    1.000
    N3       N        0.99480    0.06154    0.08205    1.000
    Si4      Si       0.00584    0.17132    0.08997    1.000
    Si5      Si       0.00071    0.14787    0.02254    1.000
    Si6      Si       0.99395    0.24354    0.10150    1.000
    N7       N        0.99042    0.22489    0.00143    1.000
    N8       N        0.98882    0.17839    0.05036    1.000
    N9       N        0.04941    0.17298    0.09701    1.000
    Si10     Si       0.03167    0.05211    0.19043    1.000
    N11      N        0.04219    0.01201    0.17809    1.000
    N12      N        0.98946    0.05855    0.19732    1.000
    N13      N        0.03192    0.19593    0.16552    1.000
    N14      N        0.01046    0.20960    0.22721    1.000
    Si15     Si       0.04267    0.21801    0.20130    1.000
    N16      N        0.01432    0.08147    0.31979    1.000
    N17      N        0.99826    0.03916    0.26303    1.000
    Si18     Si       0.00197    0.08151    0.36611    1.000
    Si19     Si       0.00712    0.12235    0.30257    1.000
    Si20     Si       0.04019    0.02954    0.25715    1.000
    Si21     Si       0.99164    0.04628    0.30378    1.000
    N22      N        0.99299    0.20445    0.29288    1.000
    N23      N        0.03214    0.14802    0.27733    1.000
    Si24     Si       0.02380    0.18919    0.26583    1.000
    N25      N        0.01071    0.24591    0.34405    1.000
    Si26     Si       0.01757    0.24075    0.29881    1.000
    N27      N        0.99631    0.14963    0.33606    1.000
    Si28     Si       0.04681    0.11501    0.41980    1.000
    N29      N        0.02815    0.11196    0.38207    1.000
    N30      N        0.00667    0.04354    0.38505    1.000
    N31      N        0.02551    0.08148    0.44057    1.000
    Si32     Si       0.01871    0.03953    0.42872    1.000
    Si33     Si       0.03908    0.08091    0.48069    1.000
    Si34     Si       0.99722    0.15983    0.44808    1.000
    N35      N        0.04312    0.15255    0.44313    1.000
    Si36     Si       0.99517    0.23588    0.45091    1.000
    N37      N        0.02772    0.19011    0.38212    1.000
    N38      N        0.03247    0.24639    0.46824    1.000
    Si39     Si       0.00866    0.15020    0.37731    1.000
    Si40     Si       0.99774    0.21909    0.37615    1.000
    N41      N        0.02321    0.11998    0.57301    1.000
    Si42     Si       0.01056    0.08077    0.55823    1.000
    N43      N        0.03758    0.11279    0.51055    1.000
    N44      N        0.99734    0.06773    0.59696    1.000
    Si45     Si       0.99583    0.12749    0.51300    1.000
    Si46     Si       0.04061    0.02273    0.52518    1.000
    N47      N        0.01720    0.04203    0.49394    1.000
    Si48     Si       0.00160    0.13559    0.60669    1.000
    N49      N        0.02804    0.23015    0.56002    1.000
    Si50     Si       0.01325    0.18956    0.55898    1.000
    N51      N        0.00873    0.17850    0.60131    1.000
    Si52     Si       0.03386    0.25772    0.59334    1.000
    N53      N        0.99316    0.16817    0.52777    1.000
    N54      N        0.00447    0.01750    0.72202    1.000
    N55      N        0.00525    0.05065    0.66210    1.000
    Si56     Si       0.02432    0.07353    0.63076    1.000
    Si57     Si       0.03031    0.02558    0.68607    1.000
    N58      N        0.01940    0.11659    0.64113    1.000
    N59      N        0.01679    0.24418    0.70080    1.000
    N60      N        0.02237    0.24131    0.63356    1.000
    Si61     Si       0.04466    0.13978    0.66775    1.000
    N62      N        0.02833    0.15084    0.70840    1.000
    Si63     Si       0.01520    0.20033    0.63806    1.000
    Si64     Si       0.00896    0.02890    0.83737    1.000
    N65      N        0.00631    0.06971    0.76976    1.000
    Si66     Si       0.99468    0.10787    0.78844    1.000
    Si67     Si       0.04316    0.04948    0.77856    1.000
    N68      N        0.04287    0.05157    0.82330    1.000
    N69      N        0.01569    0.13238    0.81645    1.000
    Si70     Si       0.00756    0.14337    0.85874    1.000
    N71      N        0.02767    0.24227    0.78151    1.000
    N72      N        0.01641    0.02368    0.87908    1.000
    N73      N        0.00772    0.10848    0.88600    1.000
    Si74     Si       0.01628    0.03984    0.91848    1.000
    N75      N        0.04857    0.06716    0.92702    1.000
    Si76     Si       0.04585    0.18156    0.91673    1.000
    N77      N        0.01449    0.20432    0.93820    1.000
    N78      N        0.02875    0.16301    0.99328    1.000
    N79      N        0.03336    0.17547    0.87514    1.000
    Si80     Si       0.02573    0.20537    0.98233    1.000
    N81      N        0.03484    0.35033    0.01943    1.000
    Si82     Si       0.03240    0.29279    0.06385    1.000
    Si83     Si       0.00018    0.37605    0.02297    1.000
    N84      N        0.99416    0.30853    0.04873    1.000
    N85      N        0.99567    0.33503    0.11404    1.000
    Si86     Si       0.02419    0.31021    0.00435    1.000
    N87      N        0.03379    0.25902    0.09250    1.000
    N88      N        0.01577    0.39655    0.10154    1.000
    Si89     Si       0.03761    0.41669    0.07058    1.000
    N90      N        0.03522    0.48257    0.01081    1.000
    Si91     Si       0.00780    0.44965    0.00801    1.000
    N92      N        0.01533    0.41561    0.03205    1.000
    N93      N        0.00598    0.33354    0.22550    1.000
    Si94     Si       0.02239    0.37308    0.21023    1.000
    Si95     Si       0.02206    0.36498    0.13063    1.000
    N96      N        0.00856    0.38160    0.16977    1.000
    Si97     Si       0.02293    0.44151    0.23246    1.000
    N98      N        0.00948    0.40106    0.24214    1.000
    N99      N        0.01245    0.46736    0.19736    1.000
    Si100    Si       0.02309    0.34869    0.33541    1.000
    N101     N        0.02352    0.34847    0.29062    1.000
    Si102    Si       0.02171    0.31481    0.26286    1.000
    N103     N        0.99924    0.27660    0.27637    1.000
    N104     N        0.04129    0.31052    0.34493    1.000
    Si105    Si       0.01609    0.28420    0.36577    1.000
    Si106    Si       0.03199    0.38801    0.27777    1.000
    N107     N        0.02021    0.41273    0.31144    1.000
    N108     N        0.01719    0.46757    0.26684    1.000
    N109     N        0.00814    0.47124    0.34213    1.000
    Si110    Si       0.02895    0.45543    0.30843    1.000
    Si111    Si       0.98590    0.40821    0.34024    1.000
    Si112    Si       0.01596    0.28556    0.48219    1.000
    Si113    Si       0.00899    0.35592    0.45571    1.000
    N114     N        0.03539    0.32191    0.46564    1.000
    N115     N        0.03825    0.27122    0.40135    1.000
    N116     N        0.99163    0.36649    0.49267    1.000
    Si117    Si       0.01676    0.48491    0.45500    1.000
    Si118    Si       0.02841    0.46338    0.37970    1.000
    N119     N        0.03274    0.38817    0.43972    1.000
    N120     N        0.99454    0.41870    0.38014    1.000
    N121     N        0.04684    0.45989    0.47440    1.000
    Si122    Si       0.03394    0.39957    0.39773    1.000
    N123     N        0.00686    0.46400    0.41810    1.000
    N124     N        0.02036    0.28868    0.52521    1.000
    N125     N        0.02329    0.35373    0.55675    1.000
    Si126    Si       0.04679    0.31823    0.54593    1.000
    Si127    Si       0.99817    0.25843    0.54538    1.000
    N128     N        0.98887    0.27437    0.58448    1.000
    Si129    Si       0.01688    0.38444    0.52439    1.000
    N130     N        0.04189    0.44344    0.58917    1.000
    Si131    Si       0.00144    0.42815    0.58410    1.000
    N132     N        0.99602    0.38979    0.60555    1.000
    N133     N        0.99133    0.41629    0.54216    1.000
    Si134    Si       0.03179    0.33144    0.68868    1.000
    N135     N        0.00306    0.35312    0.66464    1.000
    Si136    Si       0.01714    0.26868    0.66412    1.000
    N137     N        0.01648    0.32192    0.72840    1.000
    Si138    Si       0.03651    0.35905    0.74178    1.000
    N139     N        0.98604    0.48907    0.67065    1.000
    N140     N        0.01444    0.45728    0.73243    1.000
    N141     N        0.00609    0.42204    0.66911    1.000
    Si142    Si       0.01808    0.38850    0.64252    1.000
    Si143    Si       0.99703    0.49032    0.71146    1.000
    Si144    Si       0.02175    0.42099    0.70893    1.000
    N145     N        0.00734    0.38872    0.73360    1.000
    Si146    Si       0.02368    0.27629    0.80740    1.000
    N147     N        0.00875    0.33557    0.85267    1.000
    N148     N        0.99964    0.30757    0.79340    1.000
    N149     N        0.01248    0.26623    0.84697    1.000
    N150     N        0.99796    0.37821    0.79462    1.000
    N151     N        0.00687    0.39985    0.85187    1.000
    N152     N        0.02125    0.44104    0.80307    1.000
    Si153    Si       0.03629    0.46501    0.76863    1.000
    Si154    Si       0.04422    0.41804    0.83368    1.000
    N155     N        0.02176    0.50125    0.85408    1.000
    N156     N        0.03730    0.50900    0.77541    1.000
    Si157    Si       0.02043    0.29921    0.87751    1.000
    Si158    Si       0.01877    0.36628    0.88327    1.000
    Si159    Si       0.01662    0.30155    0.94070    1.000
    N160     N        0.01041    0.26993    0.91203    1.000
    N161     N        0.01672    0.33292    0.91332    1.000
    N162     N        0.99278    0.29252    0.97616    1.000
    N163     N        0.00964    0.40149    0.91446    1.000
    Si164    Si       0.99279    0.47682    0.94010    1.000
    N165     N        0.00270    0.44327    0.96535    1.000
    N166     N        0.03119    0.56149    0.05833    1.000
    Si167    Si       0.02245    0.58274    0.09230    1.000
    N168     N        0.00197    0.61993    0.08396    1.000
    Si169    Si       0.00392    0.51495    0.11408    1.000
    N170     N        0.99286    0.54166    0.00283    1.000
    N171     N        0.00122    0.55846    0.12178    1.000
    Si172    Si       0.99239    0.54511    0.04718    1.000
    N173     N        0.03685    0.63779    0.02852    1.000
    Si174    Si       0.02469    0.65130    0.06675    1.000
    N175     N        0.02087    0.74231    0.02531    1.000
    N176     N        0.00774    0.69231    0.06423    1.000
    Si177    Si       0.99454    0.70723    0.02448    1.000
    Si178    Si       0.04214    0.72200    0.05884    1.000
    N179     N        0.98949    0.73967    0.11643    1.000
    N180     N        0.00782    0.61801    0.16622    1.000
    N181     N        0.03340    0.60919    0.22231    1.000
    Si182    Si       0.00316    0.57772    0.15994    1.000
    N183     N        0.01352    0.53855    0.23235    1.000
    N184     N        0.04245    0.56312    0.17279    1.000
    N185     N        0.98812    0.67079    0.13463    1.000
    N186     N        0.02153    0.67059    0.20226    1.000
    Si187    Si       0.02731    0.66738    0.15793    1.000
    Si188    Si       0.03249    0.72214    0.20187    1.000
    N189     N        0.04033    0.71134    0.15838    1.000
    Si190    Si       0.03189    0.74193    0.12778    1.000
    Si191    Si       0.99847    0.63419    0.21182    1.000
    N192     N        0.04473    0.71380    0.24279    1.000
    N193     N        0.02221    0.52435    0.30160    1.000
    N194     N        0.02427    0.59102    0.28809    1.000
    N195     N        0.02958    0.56182    0.35389    1.000
    Si196    Si       0.00743    0.56114    0.31563    1.000
    Si197    Si       0.03285    0.57513    0.24950    1.000
    Si198    Si       0.00475    0.50885    0.26478    1.000
    N199     N        0.02497    0.63043    0.36147    1.000
    Si200    Si       0.01899    0.63240    0.28665    1.000
    Si201    Si       0.03585    0.73100    0.35189    1.000
    Si202    Si       0.04300    0.73650    0.27767    1.000
    N203     N        0.00068    0.74854    0.28052    1.000
    N204     N        0.00688    0.70110    0.36240    1.000
    Si205    Si       0.99443    0.66055    0.35917    1.000
    N206     N        0.99123    0.64253    0.25399    1.000
    N207     N        0.99142    0.65480    0.31500    1.000
    N208     N        0.05171    0.71622    0.31441    1.000
    N209     N        0.02668    0.57940    0.48097    1.000
    Si210    Si       0.03223    0.53709    0.47830    1.000
    N211     N        0.02702    0.59389    0.41775    1.000
    Si212    Si       0.00955    0.59060    0.38069    1.000
    N213     N        0.99434    0.51613    0.48252    1.000
    Si214    Si       0.01358    0.61087    0.45466    1.000
    N215     N        0.04340    0.51588    0.44155    1.000
    Si216    Si       0.99767    0.66908    0.47379    1.000
    N217     N        0.03501    0.64816    0.46136    1.000
    N218     N        0.01547    0.54338    0.54046    1.000
    N219     N        0.01774    0.61795    0.53900    1.000
    Si220    Si       0.00763    0.58162    0.51842    1.000
    N221     N        0.02515    0.59911    0.60491    1.000
    N222     N        0.99843    0.52748    0.61313    1.000
    N223     N        0.00751    0.66667    0.58085    1.000
    N224     N        0.00140    0.74763    0.53031    1.000
    Si225    Si       0.04075    0.75580    0.54661    1.000
    Si226    Si       0.99866    0.57102    0.62255    1.000
    N227     N        0.01256    0.56113    0.66319    1.000
    N228     N        0.00355    0.56465    0.73934    1.000
    Si229    Si       0.00766    0.58601    0.69811    1.000
    Si230    Si       0.01822    0.51836    0.65413    1.000
    Si231    Si       0.03495    0.53523    0.74194    1.000
    N232     N        0.03416    0.51203    0.70469    1.000
    Si233    Si       0.98791    0.65689    0.70276    1.000
    Si234    Si       0.03139    0.70059    0.65449    1.000
    N235     N        0.02462    0.66762    0.68184    1.000
    N236     N        0.00006    0.71342    0.62771    1.000
    N237     N        0.04763    0.73357    0.67611    1.000
    N238     N        0.00646    0.56940    0.82193    1.000
    Si239    Si       0.03114    0.54365    0.84696    1.000
    Si240    Si       0.02014    0.61114    0.81960    1.000
    N241     N        0.04182    0.62551    0.85536    1.000
    Si242    Si       0.03778    0.66303    0.76739    1.000
    N243     N        0.03190    0.69547    0.79445    1.000
    N244     N        0.02565    0.73645    0.84230    1.000
    Si245    Si       0.99844    0.70922    0.81919    1.000
    N246     N        0.99762    0.67962    0.85437    1.000
    N247     N        0.99981    0.65705    0.74641    1.000
    N248     N        0.99072    0.62254    0.89771    1.000
    N249     N        0.02351    0.51146    0.94353    1.000
    Si250    Si       0.02857    0.52016    0.98858    1.000
    Si251    Si       0.00460    0.58465    0.91416    1.000
    N252     N        0.02846    0.55704    0.89168    1.000
    N253     N        0.02169    0.58665    0.95305    1.000
    N254     N        0.99959    0.70791    0.97746    1.000
    Si255    Si       0.02495    0.74464    0.98080    1.000
    Si256    Si       0.03000    0.71324    0.88074    1.000
    Si257    Si       0.99709    0.69904    0.93344    1.000
    Si258    Si       0.01754    0.65089    0.88086    1.000
    N259     N        0.03151    0.67958    0.91325    1.000
    N260     N        0.99524    0.73089    0.90351    1.000
    N261     N        0.03324    0.80933    0.03764    1.000
    Si262    Si       0.99998    0.78317    0.02460    1.000
    Si263    Si       0.03173    0.84236    0.00854    1.000
    N264     N        0.03571    0.83902    0.10532    1.000
    Si265    Si       0.01761    0.87750    0.11458    1.000
    N266     N        0.99041    0.85599    0.01084    1.000
    N267     N        0.00405    0.89188    0.07598    1.000
    N268     N        0.01017    0.93875    0.03639    1.000
    Si269    Si       0.00142    0.98060    0.03680    1.000
    Si270    Si       0.03778    0.90703    0.04689    1.000
    N271     N        0.02801    0.99749    0.06531    1.000
    N272     N        0.00240    0.99971    0.99894    1.000
    Si273    Si       0.02287    0.80005    0.20375    1.000
    Si274    Si       0.01893    0.81152    0.13487    1.000
    N275     N        0.03003    0.83061    0.17100    1.000
    N276     N        0.02155    0.82338    0.24106    1.000
    N277     N        0.04700    0.76436    0.20564    1.000
    Si278    Si       0.03762    0.92033    0.21363    1.000
    Si279    Si       0.02945    0.00451    0.13558    1.000
    N280     N        0.99475    0.92677    0.20499    1.000
    N281     N        0.01371    0.84749    0.36218    1.000
    N282     N        0.02231    0.77157    0.34362    1.000
    N283     N        0.01370    0.87044    0.29232    1.000
    Si284    Si       0.00054    0.87647    0.33346    1.000
    Si285    Si       0.03979    0.81170    0.35430    1.000
    Si286    Si       0.99576    0.83564    0.27223    1.000
    Si287    Si       0.98920    0.76976    0.31597    1.000
    Si288    Si       0.03537    0.95813    0.27233    1.000
    N289     N        0.00732    0.91842    0.34057    1.000
    N290     N        0.99200    0.95819    0.26927    1.000
    Si291    Si       0.01386    0.00469    0.36366    1.000
    N292     N        0.99603    0.00770    0.32332    1.000
    Si293    Si       0.01518    0.83953    0.40507    1.000
    Si294    Si       0.03075    0.76739    0.40977    1.000
    N295     N        0.04232    0.80661    0.39718    1.000
    N296     N        0.03850    0.87076    0.42166    1.000
    N297     N        0.02810    0.76744    0.45370    1.000
    Si298    Si       0.02564    0.87304    0.46252    1.000
    N299     N        0.04125    0.83516    0.47774    1.000
    N300     N        0.99518    0.00620    0.44605    1.000
    Si301    Si       0.03507    0.98320    0.46283    1.000
    N302     N        0.01072    0.95375    0.49015    1.000
    Si303    Si       0.00625    0.80375    0.59086    1.000
    Si304    Si       0.01363    0.87159    0.56538    1.000
    N305     N        0.04263    0.78480    0.57864    1.000
    N306     N        0.99172    0.83371    0.56418    1.000
    N307     N        0.00157    0.89066    0.60291    1.000
    N308     N        0.02048    0.99532    0.55379    1.000
    Si309    Si       0.03412    0.92408    0.51459    1.000
    N310     N        0.00366    0.90338    0.53584    1.000
    Si311    Si       0.99870    0.93319    0.60355    1.000
    N312     N        0.03940    0.94635    0.60274    1.000
    N313     N        0.01905    0.83013    0.62550    1.000
    N314     N        0.03077    0.79936    0.68497    1.000
    N315     N        0.01043    0.76880    0.73557    1.000
    Si316    Si       0.02241    0.80972    0.72782    1.000
    Si317    Si       0.00224    0.87488    0.71160    1.000
    N318     N        0.04580    0.87677    0.71262    1.000
    Si319    Si       0.01804    0.75954    0.69441    1.000
    N320     N        0.02758    0.98371    0.67398    1.000
    N321     N        0.04910    0.95572    0.72865    1.000
    Si322    Si       0.01117    0.77230    0.82283    1.000
    Si323    Si       0.03547    0.83377    0.78774    1.000
    N324     N        0.04043    0.80169    0.81396    1.000
    N325     N        0.99414    0.84193    0.79654    1.000
    N326     N        0.04836    0.87471    0.78442    1.000
    N327     N        0.01630    0.98784    0.82555    1.000
    N328     N        0.00504    0.91951    0.82477    1.000
    Si329    Si       0.04433    0.90110    0.81880    1.000
    N330     N        0.99123    0.96215    0.76794    1.000
    Si331    Si       0.99011    0.95803    0.80919    1.000
    Si332    Si       0.02240    0.98356    0.74778    1.000
    N333     N        0.02069    0.79382    0.91352    1.000
    N334     N        0.00281    0.78152    0.98003    1.000
    Si335    Si       0.00711    0.81287    0.94936    1.000
    N336     N        0.03914    0.83648    0.96505    1.000
    Si337    Si       0.02264    0.92986    0.93770    1.000
    N338     N        0.04477    0.95173    0.97060    1.000
    Si339    Si       0.03598    0.99392    0.97470    1.000
    Si340    Si       0.01722    0.98289    0.89074    1.000
    N341     N        0.99997    0.94490    0.90362    1.000
    N342     N        0.02419    0.00117    0.93416    1.000
    N343     N        0.99617    0.90317    0.95957    1.000
    Si344    Si       0.08282    0.02585    0.02642    1.000
    Si345    Si       0.05952    0.09874    0.03304    1.000
    N346     N        0.05844    0.05755    0.04748    1.000
    N347     N        0.05708    0.10533    0.10357    1.000
    N348     N        0.08665    0.12897    0.04829    1.000
    N349     N        0.05000    0.03583    0.11290    1.000
    Si350    Si       0.07759    0.14106    0.08857    1.000
    Si351    Si       0.07590    0.25256    0.10012    1.000
    Si352    Si       0.08084    0.25317    0.01772    1.000
    N353     N        0.09692    0.25205    0.05938    1.000
    Si354    Si       0.07098    0.07256    0.12903    1.000
    Si355    Si       0.08300    0.08567    0.20677    1.000
    N356     N        0.05855    0.08013    0.16922    1.000
    N357     N        0.07460    0.12437    0.22440    1.000
    N358     N        0.05490    0.05688    0.22659    1.000
    N359     N        0.07688    0.19623    0.21907    1.000
    N360     N        0.08634    0.22092    0.12823    1.000
    N361     N        0.08183    0.15395    0.15500    1.000
    Si362    Si       0.08668    0.15927    0.20050    1.000
    Si363    Si       0.06159    0.18582    0.13728    1.000
    N364     N        0.05558    0.25721    0.19025    1.000
    Si365    Si       0.05934    0.07032    0.31858    1.000
    N366     N        0.07095    0.06565    0.35891    1.000
    N367     N        0.08423    0.09767    0.29098    1.000
    N368     N        0.05919    0.03151    0.29758    1.000
    Si369    Si       0.07218    0.13411    0.26727    1.000
    N370     N        0.08280    0.16886    0.34198    1.000
    Si371    Si       0.08853    0.21011    0.25913    1.000
    N372     N        0.09778    0.16926    0.27435    1.000
    N373     N        0.08615    0.23446    0.36736    1.000
    N374     N        0.05264    0.22374    0.27969    1.000
    N375     N        0.08843    0.10099    0.42035    1.000
    Si376    Si       0.08590    0.02818    0.46940    1.000
    N377     N        0.05625    0.02162    0.43933    1.000
    Si378    Si       0.09977    0.08044    0.38586    1.000
    N379     N        0.08159    0.07025    0.48199    1.000
    Si380    Si       0.09420    0.01309    0.37524    1.000
    Si381    Si       0.07072    0.23986    0.48542    1.000
    N382     N        0.09802    0.17869    0.40691    1.000
    N383     N        0.09261    0.20858    0.46495    1.000
    Si384    Si       0.07270    0.19322    0.37536    1.000
    Si385    Si       0.08229    0.16954    0.45046    1.000
    Si386    Si       0.07622    0.04974    0.58106    1.000
    N387     N        0.09337    0.11741    0.55082    1.000
    Si388    Si       0.10102    0.08209    0.52598    1.000
    Si389    Si       0.05406    0.13380    0.54562    1.000
    N390     N        0.06475    0.06311    0.62073    1.000
    N391     N        0.04745    0.05818    0.54946    1.000
    N392     N        0.05310    0.17618    0.54743    1.000
    N393     N        0.08140    0.23623    0.59473    1.000
    Si394    Si       0.07670    0.21032    0.55935    1.000
    N395     N        0.08704    0.23127    0.52499    1.000
    Si396    Si       0.09311    0.05792    0.72307    1.000
    N397     N        0.08081    0.11416    0.66490    1.000
    N398     N        0.06735    0.04956    0.68923    1.000
    Si399    Si       0.08697    0.07187    0.65776    1.000
    N400     N        0.08743    0.23955    0.68583    1.000
    Si401    Si       0.09016    0.19807    0.66990    1.000
    Si402    Si       0.05861    0.24390    0.71825    1.000
    N403     N        0.05241    0.18107    0.65402    1.000
    Si404    Si       0.06219    0.16727    0.73033    1.000
    N405     N        0.06389    0.20864    0.74357    1.000
    N406     N        0.09638    0.16731    0.70248    1.000
    N407     N        0.08011    0.11374    0.81893    1.000
    Si408    Si       0.07486    0.07598    0.84033    1.000
    N409     N        0.07482    0.06929    0.76001    1.000
    Si410    Si       0.09840    0.10539    0.76769    1.000
    N411     N        0.07046    0.13885    0.76275    1.000
    Si412    Si       0.05390    0.14545    0.80189    1.000
    Si413    Si       0.06816    0.22191    0.78454    1.000
    Si414    Si       0.06775    0.19214    0.85345    1.000
    N415     N        0.06449    0.18599    0.81013    1.000
    N416     N        0.10358    0.23443    0.80602    1.000
    N417     N        0.07700    0.23274    0.86670    1.000
    N418     N        0.10318    0.16807    0.86649    1.000
    N419     N        0.06288    0.09803    0.99121    1.000
    N420     N        0.08308    0.09469    0.88046    1.000
    Si421    Si       0.06726    0.06218    0.96624    1.000
    N422     N        0.06312    0.02412    0.98801    1.000
    Si423    Si       0.04844    0.10446    0.90492    1.000
    N424     N        0.05348    0.13951    0.93152    1.000
    Si425    Si       0.05829    0.13816    0.97332    1.000
    N426     N        0.09575    0.15775    0.98510    1.000
    N427     N        0.08020    0.20377    0.93007    1.000
    Si428    Si       0.09498    0.19898    0.97187    1.000
    Si429    Si       0.09739    0.23497    0.90614    1.000
    N430     N        0.06572    0.21933    0.99582    1.000
    Si431    Si       0.06979    0.35472    0.04567    1.000
    Si432    Si       0.08325    0.32457    0.11130    1.000
    N433     N        0.05832    0.32406    0.07587    1.000
    N434     N        0.04479    0.27850    0.02559    1.000
    Si435    Si       0.06772    0.47400    0.11041    1.000
    Si436    Si       0.06396    0.47691    0.04022    1.000
    N437     N        0.07298    0.39493    0.06232    1.000
    N438     N        0.10247    0.45556    0.03010    1.000
    Si439    Si       0.10517    0.42538    0.06227    1.000
    N440     N        0.04694    0.45795    0.07561    1.000
    N441     N        0.09155    0.28501    0.12701    1.000
    N442     N        0.06583    0.37087    0.20814    1.000
    Si443    Si       0.08549    0.35062    0.17596    1.000
    N444     N        0.05781    0.34298    0.14229    1.000
    Si445    Si       0.09096    0.27683    0.17165    1.000
    N446     N        0.10330    0.31356    0.19096    1.000
    N447     N        0.06436    0.43938    0.21681    1.000
    N448     N        0.05936    0.45207    0.14614    1.000
    N449     N        0.07378    0.50552    0.18836    1.000
    Si450    Si       0.05486    0.46727    0.18610    1.000
    Si451    Si       0.08416    0.40284    0.23028    1.000
    Si452    Si       0.08408    0.30579    0.34139    1.000
    N453     N        0.06078    0.29895    0.25821    1.000
    Si454    Si       0.09940    0.28357    0.26944    1.000
    Si455    Si       0.08827    0.37481    0.35576    1.000
    N456     N        0.09833    0.27807    0.31175    1.000
    N457     N        0.10084    0.34550    0.32605    1.000
    N458     N        0.04785    0.37040    0.36638    1.000
    N459     N        0.07557    0.39564    0.27254    1.000
    N460     N        0.06753    0.47606    0.31347    1.000
    N461     N        0.10230    0.41264    0.33741    1.000
    Si462    Si       0.10390    0.44475    0.36889    1.000
    N463     N        0.09779    0.34640    0.45065    1.000
    N464     N        0.08879    0.28099    0.48753    1.000
    Si465    Si       0.07616    0.32072    0.48024    1.000
    N466     N        0.09670    0.30350    0.38320    1.000
    Si467    Si       0.08103    0.26498    0.40059    1.000
    N468     N        0.05256    0.50074    0.37593    1.000
    N469     N        0.09335    0.42059    0.45601    1.000
    Si470    Si       0.08919    0.46631    0.46299    1.000
    N471     N        0.10329    0.48324    0.42295    1.000
    Si472    Si       0.05109    0.41671    0.46835    1.000
    N473     N        0.06218    0.43316    0.38578    1.000
    N474     N        0.07684    0.33908    0.52056    1.000
    N475     N        0.05748    0.29419    0.58267    1.000
    Si476    Si       0.09678    0.27862    0.59242    1.000
    Si477    Si       0.08889    0.38055    0.52637    1.000
    N478     N        0.09590    0.39187    0.56744    1.000
    Si479    Si       0.07466    0.41636    0.59820    1.000
    Si480    Si       0.06650    0.47840    0.60344    1.000
    N481     N        0.10064    0.45156    0.60929    1.000
    N482     N        0.05340    0.40175    0.51099    1.000
    N483     N        0.07129    0.50939    0.57425    1.000
    Si484    Si       0.09155    0.28061    0.66974    1.000
    N485     N        0.05755    0.36309    0.70044    1.000
    N486     N        0.07913    0.27319    0.74294    1.000
    N487     N        0.04932    0.29670    0.67117    1.000
    Si488    Si       0.09497    0.44730    0.72196    1.000
    N489     N        0.10555    0.48703    0.70590    1.000
    N490     N        0.06518    0.42717    0.69860    1.000
    N491     N        0.05377    0.49553    0.64485    1.000
    Si492    Si       0.07775    0.39218    0.67586    1.000
    N493     N        0.06110    0.39414    0.63467    1.000
    Si494    Si       0.07199    0.50614    0.68386    1.000
    N495     N        0.07198    0.34953    0.76680    1.000
    N496     N        0.06472    0.28807    0.80833    1.000
    Si497    Si       0.07906    0.30544    0.77250    1.000
    Si498    Si       0.09615    0.37285    0.79392    1.000
    Si499    Si       0.10335    0.37111    0.86282    1.000
    Si500    Si       0.08604    0.26345    0.83723    1.000
    N501     N        0.07931    0.40809    0.81364    1.000
    N502     N        0.07843    0.47847    0.82336    1.000
    N503     N        0.07946    0.45448    0.76090    1.000
    Si504    Si       0.09881    0.44605    0.80112    1.000
    Si505    Si       0.05993    0.48142    0.86093    1.000
    N506     N        0.05458    0.44103    0.86889    1.000
    N507     N        0.06335    0.30114    0.87264    1.000
    Si508    Si       0.09340    0.29737    0.95922    1.000
    N509     N        0.05207    0.30819    0.96501    1.000
    Si510    Si       0.10417    0.30136    0.88717    1.000
    N511     N        0.06176    0.38008    0.88013    1.000
    N512     N        0.10442    0.27629    0.92141    1.000
    Si513    Si       0.05147    0.41623    0.90243    1.000
    N514     N        0.07255    0.49743    0.89818    1.000
    N515     N        0.07947    0.43335    0.92947    1.000
    N516     N        0.10202    0.49456    0.96377    1.000
    Si517    Si       0.09827    0.47356    0.92549    1.000
    Si518    Si       0.07077    0.55199    0.04350    1.000
    N519     N        0.06039    0.58871    0.11417    1.000
    N520     N        0.08630    0.51259    0.05260    1.000
    N521     N        0.09908    0.58192    0.05315    1.000
    N522     N        0.06340    0.54385    0.99995    1.000
    Si523    Si       0.07431    0.62923    0.11667    1.000
    N524     N        0.04711    0.51367    0.11773    1.000
    Si525    Si       0.07634    0.63807    0.00886    1.000
    N526     N        0.07520    0.70751    0.03818    1.000
    N527     N        0.06172    0.65832    0.08703    1.000
    Si528    Si       0.09353    0.67908    0.06643    1.000
    N529     N        0.06087    0.73568    0.09360    1.000
    Si530    Si       0.08426    0.70712    0.99645    1.000
    Si531    Si       0.06453    0.55049    0.13741    1.000
    N532     N        0.09799    0.60959    0.19754    1.000
    N533     N        0.07187    0.55964    0.23653    1.000
    Si534    Si       0.05265    0.60714    0.18255    1.000
    Si535    Si       0.04986    0.53754    0.20660    1.000
    N536     N        0.06528    0.64380    0.15556    1.000
    Si537    Si       0.09934    0.65223    0.18333    1.000
    N538     N        0.08837    0.67765    0.21681    1.000
    Si539    Si       0.05030    0.67100    0.23749    1.000
    N540     N        0.08448    0.54273    0.32921    1.000
    Si541    Si       0.07261    0.56835    0.36299    1.000
    Si542    Si       0.05208    0.51448    0.33324    1.000
    N543     N        0.09069    0.60707    0.37180    1.000
    Si544    Si       0.07709    0.68164    0.30171    1.000
    N545     N        0.09196    0.66512    0.33826    1.000
    Si546    Si       0.06636    0.64261    0.36516    1.000
    N547     N        0.05340    0.65609    0.27726    1.000
    N548     N        0.08813    0.55079    0.40034    1.000
    Si549    Si       0.07356    0.51243    0.41184    1.000
    N550     N        0.10245    0.62256    0.44744    1.000
    Si551    Si       0.10554    0.58231    0.42524    1.000
    Si552    Si       0.10711    0.53218    0.49370    1.000
    N553     N        0.05561    0.73784    0.39134    1.000
    Si554    Si       0.07377    0.65422    0.44220    1.000
    N555     N        0.06500    0.66543    0.40129    1.000
    Si556    Si       0.08182    0.70719    0.40748    1.000
    N557     N        0.08717    0.69435    0.45034    1.000
    N558     N        0.07135    0.57893    0.55421    1.000
    Si559    Si       0.05714    0.53883    0.54739    1.000
    N560     N        0.06618    0.52845    0.50434    1.000
    Si561    Si       0.04668    0.61232    0.57117    1.000
    N562     N        0.07276    0.64616    0.57807    1.000
    N563     N        0.05864    0.71653    0.55869    1.000
    Si564    Si       0.04787    0.68230    0.58448    1.000
    Si565    Si       0.10058    0.71943    0.55112    1.000
    N566     N        0.04671    0.60396    0.70152    1.000
    Si567    Si       0.07776    0.57445    0.70703    1.000
    N568     N        0.09008    0.54556    0.67760    1.000
    N569     N        0.07901    0.54762    0.73915    1.000
    N570     N        0.09465    0.65126    0.67525    1.000
    Si571    Si       0.08510    0.75302    0.66569    1.000
    Si572    Si       0.10222    0.68559    0.64799    1.000
    Si573    Si       0.05933    0.64480    0.70027    1.000
    N574     N        0.06988    0.66333    0.73931    1.000
    N575     N        0.06489    0.68924    0.62568    1.000
    N576     N        0.07163    0.54485    0.82676    1.000
    Si577    Si       0.07578    0.51495    0.79595    1.000
    N578     N        0.10575    0.63556    0.84348    1.000
    N579     N        0.08637    0.75376    0.81452    1.000
    Si580    Si       0.06275    0.71832    0.82151    1.000
    N581     N        0.06570    0.69007    0.85898    1.000
    Si582    Si       0.07166    0.65692    0.82568    1.000
    N583     N        0.09574    0.68817    0.80408    1.000
    N584     N        0.04944    0.63363    0.79589    1.000
    Si585    Si       0.07961    0.61538    0.87560    1.000
    N586     N        0.06782    0.62305    0.91982    1.000
    Si587    Si       0.06362    0.59410    0.95353    1.000
    N588     N        0.08107    0.55559    0.93803    1.000
    N589     N        0.09340    0.61019    0.98150    1.000
    Si590    Si       0.09721    0.53607    0.97372    1.000
    N591     N        0.10251    0.57785    0.87748    1.000
    Si592    Si       0.05075    0.53010    0.91677    1.000
    N593     N        0.06786    0.74239    0.97455    1.000
    Si594    Si       0.06814    0.66349    0.93598    1.000
    N595     N        0.06851    0.67144    0.97911    1.000
    Si596    Si       0.09332    0.70556    0.88839    1.000
    N597     N        0.10522    0.68016    0.92174    1.000
    N598     N        0.06450    0.73683    0.89928    1.000
    N599     N        0.09232    0.80033    0.07904    1.000
    Si600    Si       0.05716    0.82163    0.07175    1.000
    Si601    Si       0.08559    0.76876    0.10868    1.000
    Si602    Si       0.09591    0.87469    0.01140    1.000
    N603     N        0.05566    0.87466    0.02596    1.000
    N604     N        0.07009    0.92615    0.06873    1.000
    N605     N        0.09195    0.99046    0.05020    1.000
    Si606    Si       0.06230    0.97064    0.07562    1.000
    N607     N        0.08328    0.81799    0.21705    1.000
    Si608    Si       0.07949    0.77702    0.23118    1.000
    Si609    Si       0.05650    0.84826    0.23258    1.000
    Si610    Si       0.05750    0.86483    0.16710    1.000
    N611     N        0.10057    0.85994    0.16688    1.000
    N612     N        0.04850    0.88024    0.20628    1.000
    N613     N        0.04720    0.78087    0.13436    1.000
    N614     N        0.04960    0.96763    0.11778    1.000
    N615     N        0.04670    0.99073    0.24341    1.000
    Si616    Si       0.06525    0.93633    0.14363    1.000
    Si617    Si       0.06332    0.98774    0.20447    1.000
    N618     N        0.06311    0.94762    0.18780    1.000
    N619     N        0.10654    0.98595    0.21193    1.000
    N620     N        0.04549    0.89742    0.14093    1.000
    N621     N        0.07552    0.80999    0.33255    1.000
    N622     N        0.07773    0.86016    0.26706    1.000
    Si623    Si       0.09588    0.78471    0.30647    1.000
    N624     N        0.06769    0.77098    0.27359    1.000
    N625     N        0.10311    0.86917    0.37392    1.000
    N626     N        0.06987    0.90023    0.32127    1.000
    N627     N        0.05716    0.96316    0.30997    1.000
    Si628    Si       0.08531    0.99753    0.30762    1.000
    Si629    Si       0.05122    0.88843    0.28436    1.000
    Si630    Si       0.04789    0.93326    0.33900    1.000
    N631     N        0.04656    0.92081    0.25664    1.000
    N632     N        0.09467    0.78910    0.46593    1.000
    Si633    Si       0.05234    0.79429    0.47716    1.000
    N634     N        0.09962    0.89794    0.43103    1.000
    N635     N        0.06036    0.95421    0.44183    1.000
    N636     N        0.05365    0.99517    0.37524    1.000
    Si637    Si       0.07078    0.96159    0.40062    1.000
    Si638    Si       0.07196    0.88782    0.39901    1.000
    N639     N        0.06339    0.92537    0.38026    1.000
    Si640    Si       0.08288    0.92071    0.46268    1.000
    N641     N        0.05336    0.89726    0.48723    1.000
    Si642    Si       0.08600    0.78689    0.59063    1.000
    Si643    Si       0.09012    0.86422    0.56287    1.000
    N644     N        0.06217    0.77841    0.51593    1.000
    Si645    Si       0.06329    0.85829    0.50776    1.000
    N646     N        0.04962    0.85937    0.54975    1.000
    N647     N        0.10255    0.82775    0.58522    1.000
    Si648    Si       0.10438    0.77542    0.50604    1.000
    N649     N        0.08442    0.88650    0.59977    1.000
    N650     N        0.10398    0.86473    0.52173    1.000
    N651     N        0.08190    0.00461    0.58320    1.000
    Si652    Si       0.05409    0.97183    0.57178    1.000
    N653     N        0.06501    0.94656    0.53854    1.000
    Si654    Si       0.09401    0.96881    0.51460    1.000
    N655     N        0.06726    0.99862    0.49646    1.000
    Si656    Si       0.07024    0.92344    0.62107    1.000
    Si657    Si       0.09610    0.80627    0.73506    1.000
    N658     N        0.07558    0.84858    0.65524    1.000
    N659     N        0.09616    0.77671    0.70328    1.000
    N660     N        0.07859    0.78250    0.63409    1.000
    Si661    Si       0.05205    0.81415    0.64977    1.000
    Si662    Si       0.10133    0.85316    0.62182    1.000
    N663     N        0.11104    0.84619    0.73077    1.000
    N664     N        0.10284    0.96609    0.68772    1.000
    Si665    Si       0.05978    0.95746    0.68682    1.000
    N666     N        0.05917    0.92020    0.66350    1.000
    Si667    Si       0.07457    0.88297    0.68050    1.000
    Si668    Si       0.08154    0.79453    0.82771    1.000
    N669     N        0.05714    0.82125    0.75085    1.000
    N670     N        0.06986    0.87840    0.84781    1.000
    N671     N        0.07808    0.80089    0.87041    1.000
    N672     N        0.10767    0.82580    0.81256    1.000
    Si673    Si       0.07333    0.86908    0.74814    1.000
    N674     N        0.06161    0.93979    0.80255    1.000
    Si675    Si       0.05847    0.97427    0.83080    1.000
    Si676    Si       0.07393    0.94475    0.76187    1.000
    N677     N        0.09544    0.90627    0.75039    1.000
    N678     N        0.10027    0.98857    0.82764    1.000
    N679     N        0.04906    0.00787    0.77077    1.000
    N680     N        0.09003    0.85307    0.91391    1.000
    N681     N        0.08897    0.79494    0.93246    1.000
    Si682    Si       0.05864    0.77919    0.90341    1.000
    Si683    Si       0.07920    0.83391    0.95047    1.000
    Si684    Si       0.10410    0.76153    0.95448    1.000
    N685     N        0.10164    0.83772    0.98774    1.000
    N686     N        0.10307    0.90033    0.97795    1.000
    N687     N        0.05548    0.96817    0.87576    1.000
    N688     N        0.10171    0.96479    0.93428    1.000
    Si689    Si       0.08370    0.94738    0.89943    1.000
    N690     N        0.06223    0.91535    0.92226    1.000
    Si691    Si       0.08190    0.93322    0.96030    1.000
    Si692    Si       0.07514    0.88538    0.89089    1.000
    Si693    Si       0.14360    0.04037    0.10864    1.000
    N694     N        0.11890    0.04855    0.01815    1.000
    N695     N        0.14585    0.11354    0.01841    1.000
    Si696    Si       0.15258    0.07178    0.03429    1.000
    N697     N        0.16504    0.06019    0.07454    1.000
    N698     N        0.13163    0.18118    0.04024    1.000
    Si699    Si       0.14445    0.17985    0.08097    1.000
    N700     N        0.14931    0.22296    0.09643    1.000
    N701     N        0.11587    0.15245    0.10380    1.000
    Si702    Si       0.15661    0.20377    0.01220    1.000
    Si703    Si       0.11533    0.14414    0.02103    1.000
    Si704    Si       0.14175    0.25322    0.06375    1.000
    N705     N        0.16347    0.24591    0.02670    1.000
    N706     N        0.11187    0.06388    0.12537    1.000
    N707     N        0.12512    0.08789    0.19321    1.000
    Si708    Si       0.13904    0.07685    0.15463    1.000
    Si709    Si       0.15042    0.11809    0.21246    1.000
    N710     N        0.15551    0.11607    0.13913    1.000
    Si711    Si       0.14170    0.24606    0.21708    1.000
    N712     N        0.12422    0.24604    0.17452    1.000
    N713     N        0.12894    0.15300    0.19383    1.000
    Si714    Si       0.12457    0.14956    0.14759    1.000
    Si715    Si       0.13079    0.22387    0.13847    1.000
    N716     N        0.15113    0.18607    0.14786    1.000
    N717     N        0.11229    0.24718    0.24925    1.000
    Si718    Si       0.14214    0.04943    0.33952    1.000
    Si719    Si       0.12101    0.07825    0.27643    1.000
    N720     N        0.13364    0.08913    0.35558    1.000
    N721     N        0.15698    0.07062    0.30150    1.000
    Si722    Si       0.15770    0.12212    0.36134    1.000
    N723     N        0.14365    0.10726    0.25400    1.000
    N724     N        0.11509    0.04268    0.25289    1.000
    N725     N        0.11309    0.01681    0.33564    1.000
    N726     N        0.13049    0.21460    0.31736    1.000
    N727     N        0.14921    0.15499    0.32896    1.000
    Si728    Si       0.11618    0.24897    0.33721    1.000
    Si729    Si       0.11264    0.17543    0.31419    1.000
    N730     N        0.12711    0.01673    0.46165    1.000
    Si731    Si       0.14521    0.04017    0.42888    1.000
    N732     N        0.14794    0.08108    0.44627    1.000
    N733     N        0.11839    0.04200    0.39513    1.000
    Si734    Si       0.10981    0.09831    0.45939    1.000
    Si735    Si       0.14072    0.17604    0.40666    1.000
    N736     N        0.15875    0.20082    0.43893    1.000
    N737     N        0.15551    0.13554    0.40238    1.000
    Si738    Si       0.12797    0.23109    0.45554    1.000
    N739     N        0.11321    0.14159    0.46532    1.000
    N740     N        0.11749    0.25704    0.42416    1.000
    N741     N        0.14490    0.24788    0.49449    1.000
    Si742    Si       0.14839    0.13831    0.49370    1.000
    N743     N        0.11247    0.05259    0.55646    1.000
    Si744    Si       0.12250    0.00970    0.56868    1.000
    N745     N        0.13441    0.09637    0.50216    1.000
    N746     N        0.14922    0.13095    0.60065    1.000
    N747     N        0.11003    0.18508    0.57199    1.000
    N748     N        0.15989    0.14748    0.53360    1.000
    Si749    Si       0.11738    0.21324    0.60467    1.000
    Si750    Si       0.12659    0.14537    0.56413    1.000
    N751     N        0.15506    0.23207    0.59871    1.000
    Si752    Si       0.15526    0.09720    0.73905    1.000
    N753     N        0.11331    0.09838    0.72361    1.000
    N754     N        0.12520    0.03084    0.72490    1.000
    N755     N        0.12930    0.06406    0.65863    1.000
    Si756    Si       0.11008    0.12798    0.69124    1.000
    N757     N        0.11986    0.19015    0.64039    1.000
    Si758    Si       0.15007    0.15881    0.63341    1.000
    N759     N        0.14783    0.13667    0.67137    1.000
    N760     N        0.13838    0.09604    0.77910    1.000
    N761     N        0.14434    0.11949    0.84430    1.000
    Si762    Si       0.14815    0.08382    0.81957    1.000
    N763     N        0.11614    0.05713    0.83509    1.000
    Si764    Si       0.12277    0.01640    0.85310    1.000
    N765     N        0.15766    0.01552    0.78148    1.000
    Si766    Si       0.10284    0.12813    0.85328    1.000
    Si767    Si       0.14521    0.22243    0.80893    1.000
    N768     N        0.15642    0.18756    0.83331    1.000
    Si769    Si       0.13862    0.04808    0.97830    1.000
    N770     N        0.11839    0.02411    0.89561    1.000
    N771     N        0.15150    0.08773    0.90468    1.000
    Si772    Si       0.11091    0.06755    0.90717    1.000
    N773     N        0.10852    0.06403    0.95286    1.000
    N774     N        0.15081    0.00858    0.96333    1.000
    N775     N        0.13782    0.21262    0.97479    1.000
    N776     N        0.13930    0.22002    0.90349    1.000
    Si777    Si       0.16352    0.22426    0.94004    1.000
    Si778    Si       0.14176    0.18625    0.87705    1.000
    Si779    Si       0.13375    0.36002    0.06443    1.000
    N780     N        0.11797    0.34874    0.10253    1.000
    N781     N        0.11023    0.34802    0.03181    1.000
    N782     N        0.15877    0.37939    0.99947    1.000
    Si783    Si       0.13706    0.34158    0.99937    1.000
    N784     N        0.14148    0.40255    0.06249    1.000
    N785     N        0.14850    0.49639    0.01635    1.000
    Si786    Si       0.12462    0.49187    0.05342    1.000
    Si787    Si       0.14344    0.46924    0.11548    1.000
    N788     N        0.10583    0.45635    0.09626    1.000
    N789     N        0.15989    0.32097    0.14657    1.000
    Si790    Si       0.14391    0.35970    0.13461    1.000
    N791     N        0.11869    0.37635    0.16390    1.000
    Si792    Si       0.13639    0.31903    0.21832    1.000
    N793     N        0.16486    0.28286    0.21614    1.000
    N794     N        0.14144    0.47609    0.22424    1.000
    Si795    Si       0.14507    0.39313    0.19262    1.000
    Si796    Si       0.16244    0.46752    0.18651    1.000
    N797     N        0.13678    0.48536    0.15564    1.000
    N798     N        0.12640    0.41197    0.22514    1.000
    N799     N        0.12514    0.31946    0.26112    1.000
    Si800    Si       0.13413    0.34230    0.29649    1.000
    N801     N        0.14985    0.26851    0.35784    1.000
    N802     N        0.14223    0.38393    0.28990    1.000
    N803     N        0.12714    0.47881    0.34746    1.000
    N804     N        0.12864    0.44782    0.28684    1.000
    Si805    Si       0.11072    0.48244    0.30723    1.000
    Si806    Si       0.10975    0.40936    0.29543    1.000
    Si807    Si       0.15079    0.44191    0.24989    1.000
    N808     N        0.14984    0.31657    0.41867    1.000
    Si809    Si       0.14873    0.27623    0.40021    1.000
    N810     N        0.11477    0.37003    0.38839    1.000
    Si811    Si       0.11074    0.33300    0.41145    1.000
    N812     N        0.15823    0.38095    0.43944    1.000
    Si813    Si       0.14951    0.39338    0.39594    1.000
    Si814    Si       0.14327    0.46645    0.42760    1.000
    N815     N        0.11692    0.48956    0.48836    1.000
    N816     N        0.16162    0.45052    0.46376    1.000
    Si817    Si       0.11709    0.38563    0.46033    1.000
    Si818    Si       0.16050    0.48616    0.49331    1.000
    N819     N        0.13884    0.43415    0.39702    1.000
    N820     N        0.12565    0.27701    0.55947    1.000
    N821     N        0.14116    0.34052    0.60186    1.000
    Si822    Si       0.11470    0.26511    0.52048    1.000
    Si823    Si       0.13657    0.37946    0.58346    1.000
    N824     N        0.16745    0.36843    0.55259    1.000
    Si825    Si       0.16504    0.37306    0.50923    1.000
    N826     N        0.12507    0.38722    0.50291    1.000
    N827     N        0.15792    0.40633    0.60940    1.000
    Si828    Si       0.14330    0.44745    0.61649    1.000
    N829     N        0.11337    0.28463    0.63196    1.000
    Si830    Si       0.12307    0.28215    0.73547    1.000
    Si831    Si       0.14941    0.30752    0.62741    1.000
    Si832    Si       0.13852    0.33967    0.69064    1.000
    N833     N        0.11775    0.37719    0.67516    1.000
    N834     N        0.15906    0.35629    0.72508    1.000
    N835     N        0.11115    0.30640    0.69978    1.000
    N836     N        0.15708    0.26150    0.71943    1.000
    N837     N        0.12963    0.42130    0.72099    1.000
    Si838    Si       0.14551    0.40965    0.68215    1.000
    Si839    Si       0.14742    0.48190    0.68661    1.000
    N840     N        0.14194    0.44776    0.65978    1.000
    Si841    Si       0.15370    0.39362    0.74567    1.000
    N842     N        0.12304    0.30337    0.77413    1.000
    N843     N        0.12312    0.28397    0.85150    1.000
    Si844    Si       0.13048    0.31217    0.81541    1.000
    N845     N        0.11040    0.34717    0.82571    1.000
    N846     N        0.13518    0.39037    0.78309    1.000
    N847     N        0.14037    0.45445    0.81148    1.000
    N848     N        0.13278    0.40369    0.85982    1.000
    Si849    Si       0.15150    0.41237    0.82117    1.000
    Si850    Si       0.14479    0.49721    0.80632    1.000
    N851     N        0.10945    0.27425    0.99145    1.000
    N852     N        0.11674    0.33566    0.96152    1.000
    Si853    Si       0.13856    0.35196    0.92689    1.000
    N854     N        0.11646    0.34203    0.89162    1.000
    Si855    Si       0.15236    0.27032    0.99099    1.000
    N856     N        0.15393    0.44607    0.97558    1.000
    Si857    Si       0.14776    0.50057    0.88039    1.000
    N858     N        0.13367    0.46458    0.90093    1.000
    Si859    Si       0.14819    0.42383    0.89466    1.000
    N860     N        0.14690    0.39465    0.92895    1.000
    Si861    Si       0.16553    0.40699    0.96675    1.000
    Si862    Si       0.12192    0.46911    0.99254    1.000
    Si863    Si       0.12833    0.60222    0.07735    1.000
    N864     N        0.15628    0.57335    0.09706    1.000
    N865     N        0.11640    0.63019    0.10683    1.000
    Si866    Si       0.16382    0.53773    0.00966    1.000
    Si867    Si       0.14313    0.53513    0.11648    1.000
    N868     N        0.16420    0.61851    0.05315    1.000
    N869     N        0.14736    0.50262    0.08745    1.000
    Si870    Si       0.14877    0.74261    0.00761    1.000
    N871     N        0.12543    0.69534    0.09135    1.000
    Si872    Si       0.14884    0.73331    0.08593    1.000
    Si873    Si       0.14937    0.65060    0.02787    1.000
    N874     N        0.10798    0.65073    0.03735    1.000
    N875     N        0.14217    0.75788    0.04961    1.000
    N876     N        0.10607    0.54098    0.13968    1.000
    Si877    Si       0.11347    0.51721    0.17537    1.000
    N878     N        0.12926    0.53939    0.20924    1.000
    Si879    Si       0.11017    0.57712    0.22483    1.000
    Si880    Si       0.14624    0.51472    0.24340    1.000
    Si881    Si       0.11358    0.70587    0.23831    1.000
    N882     N        0.16093    0.73967    0.17362    1.000
    N883     N        0.13280    0.67275    0.16308    1.000
    Si884    Si       0.13720    0.66721    0.12044    1.000
    Si885    Si       0.16429    0.69730    0.18505    1.000
    N886     N        0.15508    0.69899    0.22772    1.000
    N887     N        0.11040    0.74714    0.22473    1.000
    N888     N        0.14205    0.57621    0.33437    1.000
    N889     N        0.12698    0.51713    0.28267    1.000
    N890     N        0.12654    0.58362    0.26625    1.000
    Si891    Si       0.11804    0.55730    0.30161    1.000
    Si892    Si       0.13630    0.60494    0.36912    1.000
    Si893    Si       0.13352    0.72586    0.30560    1.000
    Si894    Si       0.13018    0.67820    0.35614    1.000
    N895     N        0.15800    0.69943    0.32977    1.000
    N896     N        0.10826    0.70151    0.28062    1.000
    N897     N        0.15360    0.64530    0.36933    1.000
    N898     N        0.14594    0.58760    0.40665    1.000
    Si899    Si       0.12865    0.60118    0.47663    1.000
    N900     N        0.10961    0.56238    0.46443    1.000
    N901     N        0.15094    0.68399    0.48357    1.000
    Si902    Si       0.11956    0.71006    0.47206    1.000
    N903     N        0.13740    0.73994    0.44474    1.000
    N904     N        0.12024    0.70446    0.38988    1.000
    Si905    Si       0.15484    0.72272    0.41030    1.000
    N906     N        0.12791    0.60829    0.58097    1.000
    N907     N        0.12502    0.55128    0.52872    1.000
    N908     N        0.12518    0.62480    0.51595    1.000
    Si909    Si       0.15322    0.58371    0.60624    1.000
    N910     N        0.15450    0.54222    0.59109    1.000
    Si911    Si       0.11214    0.59055    0.54250    1.000
    Si912    Si       0.16014    0.53380    0.54861    1.000
    Si913    Si       0.14490    0.66246    0.52077    1.000
    N914     N        0.12832    0.68409    0.55540    1.000
    Si915    Si       0.11516    0.65019    0.58389    1.000
    N916     N        0.10822    0.73166    0.50960    1.000
    N917     N        0.11303    0.75850    0.57241    1.000
    N918     N        0.13247    0.66570    0.62175    1.000
    N919     N        0.15295    0.51590    0.65790    1.000
    N920     N        0.11471    0.59707    0.71200    1.000
    N921     N        0.14897    0.53850    0.71722    1.000
    N922     N        0.14036    0.58771    0.64982    1.000
    Si923    Si       0.13339    0.55122    0.67607    1.000
    Si924    Si       0.12532    0.62198    0.67677    1.000
    Si925    Si       0.11401    0.52159    0.73519    1.000
    Si926    Si       0.14421    0.61237    0.73969    1.000
    N927     N        0.16164    0.63251    0.70159    1.000
    N928     N        0.11644    0.72402    0.66157    1.000
    N929     N        0.16157    0.75312    0.70439    1.000
    Si930    Si       0.15863    0.73423    0.66684    1.000
    Si931    Si       0.12546    0.75273    0.72529    1.000
    N932     N        0.14349    0.58192    0.81996    1.000
    N933     N        0.13529    0.52032    0.84364    1.000
    Si934    Si       0.13709    0.62822    0.81547    1.000
    Si935    Si       0.11293    0.55683    0.84098    1.000
    N936     N        0.11591    0.51097    0.77675    1.000
    N937     N        0.12881    0.63938    0.77170    1.000
    Si938    Si       0.13303    0.69574    0.82838    1.000
    N939     N        0.14942    0.72680    0.80266    1.000
    Si940    Si       0.11511    0.74376    0.78492    1.000
    N941     N        0.12808    0.71645    0.86566    1.000
    N942     N        0.16185    0.66273    0.82614    1.000
    N943     N        0.11202    0.71788    0.74755    1.000
    Si944    Si       0.10529    0.67680    0.76271    1.000
    N945     N        0.13558    0.55724    0.98466    1.000
    N946     N        0.13794    0.52802    0.91187    1.000
    Si947    Si       0.11841    0.56495    0.91466    1.000
    Si948    Si       0.13479    0.60019    0.97352    1.000
    N949     N        0.14549    0.59542    0.93167    1.000
    Si950    Si       0.13646    0.70012    0.94427    1.000
    N951     N        0.12777    0.71078    0.98806    1.000
    N952     N        0.15458    0.63769    0.98764    1.000
    N953     N        0.12967    0.74000    0.92775    1.000
    Si954    Si       0.14774    0.74894    0.89052    1.000
    Si955    Si       0.13404    0.79957    0.06401    1.000
    N956     N        0.15176    0.82417    0.03116    1.000
    N957     N        0.15838    0.82097    0.09720    1.000
    Si958    Si       0.15727    0.86320    0.11098    1.000
    N959     N        0.12735    0.75835    0.11657    1.000
    Si960    Si       0.16638    0.86624    0.03981    1.000
    N961     N        0.12126    0.87910    0.04476    1.000
    N962     N        0.11929    0.88742    0.11068    1.000
    N963     N        0.13958    0.94007    0.07381    1.000
    Si964    Si       0.13391    0.98201    0.05976    1.000
    N965     N        0.13772    0.99872    0.10199    1.000
    N966     N        0.15861    0.98553    0.02723    1.000
    Si967    Si       0.11046    0.90864    0.07560    1.000
    Si968    Si       0.15662    0.77273    0.14444    1.000
    N969     N        0.13847    0.79800    0.17509    1.000
    N970     N        0.13677    0.85304    0.23073    1.000
    Si971    Si       0.11877    0.83279    0.19444    1.000
    Si972    Si       0.14354    0.76447    0.20390    1.000
    N973     N        0.11011    0.94086    0.14316    1.000
    N974     N        0.15625    0.97262    0.16966    1.000
    Si975    Si       0.12607    0.00200    0.24671    1.000
    Si976    Si       0.14368    0.96197    0.12466    1.000
    N977     N        0.12997    0.91336    0.19718    1.000
    Si978    Si       0.11669    0.95506    0.18514    1.000
    Si979    Si       0.12289    0.89486    0.15553    1.000
    Si980    Si       0.15185    0.89267    0.22939    1.000
    N981     N        0.13025    0.86181    0.30802    1.000
    N982     N        0.12444    0.80222    0.27939    1.000
    Si983    Si       0.11779    0.84301    0.26932    1.000
    N984     N        0.15439    0.81463    0.35201    1.000
    Si985    Si       0.13902    0.77520    0.36459    1.000
    N986     N        0.11889    0.75703    0.33025    1.000
    Si987    Si       0.14394    0.94625    0.29591    1.000
    N988     N        0.12983    0.92916    0.33308    1.000
    N989     N        0.14541    0.91485    0.26433    1.000
    N990     N        0.11771    0.97758    0.28186    1.000
    Si991    Si       0.14320    0.94925    0.36936    1.000
    Si992    Si       0.10984    0.89095    0.33488    1.000
    N993     N        0.11872    0.79184    0.39869    1.000
    N994     N        0.15046    0.85037    0.41623    1.000
    Si995    Si       0.12861    0.78174    0.44029    1.000
    Si996    Si       0.12905    0.83312    0.38387    1.000
    N997     N        0.16687    0.79876    0.45474    1.000
    Si998    Si       0.15115    0.00125    0.49590    1.000
    N999     N        0.16396    0.90238    0.45429    1.000
    N1000    N        0.11152    0.97326    0.38774    1.000
    N1001    N        0.11330    0.94117    0.48675    1.000
    Si1002   Si       0.14052    0.89141    0.41962    1.000
    Si1003   Si       0.15736    0.93009    0.48856    1.000
    N1004    N        0.16082    0.91424    0.38854    1.000
    N1005    N        0.14215    0.78809    0.51982    1.000
    Si1006   Si       0.14710    0.86691    0.52180    1.000
    Si1007   Si       0.15035    0.83204    0.58940    1.000
    Si1008   Si       0.15341    0.76875    0.55812    1.000
    N1009    N        0.16496    0.86154    0.56261    1.000
    N1010    N        0.12722    0.99085    0.53024    1.000
    Si1011   Si       0.14958    0.95547    0.61136    1.000
    N1012    N        0.15453    0.99559    0.59530    1.000
    N1013    N        0.16305    0.90862    0.52595    1.000
    N1014    N        0.14363    0.84864    0.62837    1.000
    Si1015   Si       0.13874    0.87855    0.71640    1.000
    N1016    N        0.16342    0.89932    0.74597    1.000
    N1017    N        0.10857    0.94276    0.62100    1.000
    N1018    N        0.11609    0.89858    0.68415    1.000
    N1019    N        0.16491    0.98550    0.71955    1.000
    N1020    N        0.16268    0.95204    0.65239    1.000
    Si1021   Si       0.12353    0.93637    0.66391    1.000
    Si1022   Si       0.12172    0.98785    0.71997    1.000
    Si1023   Si       0.14005    0.81313    0.78786    1.000
    N1024    N        0.12063    0.78114    0.76249    1.000
    N1025    N        0.14165    0.85722    0.86673    1.000
    Si1026   Si       0.10875    0.86551    0.83453    1.000
    N1027    N        0.13349    0.88930    0.80817    1.000
    Si1028   Si       0.12910    0.98434    0.79403    1.000
    Si1029   Si       0.13154    0.91540    0.77251    1.000
    N1030    N        0.15362    0.94697    0.79921    1.000
    N1031    N        0.16304    0.99922    0.84609    1.000
    N1032    N        0.10950    0.97022    0.75835    1.000
    N1033    N        0.14308    0.79209    0.88543    1.000
    N1034    N        0.12974    0.77541    0.98515    1.000
    Si1035   Si       0.13852    0.81634    0.99136    1.000
    N1036    N        0.15919    0.83948    0.96026    1.000
    Si1037   Si       0.10927    0.81722    0.89734    1.000
    Si1038   Si       0.13512    0.99477    0.92469    1.000
    Si1039   Si       0.14339    0.88008    0.96582    1.000
    N1040    N        0.15668    0.90204    0.92922    1.000
    Si1041   Si       0.14582    0.89619    0.88773    1.000
    N1042    N        0.16624    0.96899    0.90992    1.000
    N1043    N        0.10845    0.91519    0.88292    1.000
    Si1044   Si       0.20698    0.05528    0.08265    1.000
    N1045    N        0.21469    0.11802    0.02431    1.000
    N1046    N        0.21544    0.09419    0.09927    1.000
    N1047    N        0.22170    0.02713    0.11260    1.000
    Si1048   Si       0.19022    0.12788    0.11221    1.000
    N1049    N        0.17757    0.06419    0.99218    1.000
    N1050    N        0.19331    0.18212    0.01303    1.000
    Si1051   Si       0.18772    0.24645    0.10203    1.000
    N1052    N        0.18254    0.15783    0.07965    1.000
    Si1053   Si       0.20760    0.15509    0.04638    1.000
    N1054    N        0.21579    0.23090    0.07204    1.000
    Si1055   Si       0.20676    0.25398    0.03491    1.000
    N1056    N        0.21472    0.01397    0.18554    1.000
    Si1057   Si       0.20952    0.04097    0.15273    1.000
    N1058    N        0.19290    0.07404    0.22571    1.000
    N1059    N        0.16851    0.04961    0.14311    1.000
    Si1060   Si       0.22527    0.23934    0.16275    1.000
    N1061    N        0.18723    0.14168    0.20767    1.000
    N1062    N        0.16596    0.21106    0.21331    1.000
    N1063    N        0.21805    0.19707    0.17137    1.000
    Si1064   Si       0.21799    0.14375    0.23600    1.000
    Si1065   Si       0.20599    0.22058    0.22644    1.000
    Si1066   Si       0.17270    0.17856    0.18572    1.000
    Si1067   Si       0.19459    0.07422    0.32461    1.000
    N1068    N        0.19737    0.11379    0.34200    1.000
    N1069    N        0.18437    0.04207    0.35133    1.000
    Si1070   Si       0.18759    0.08880    0.26668    1.000
    N1071    N        0.22021    0.06983    0.29054    1.000
    N1072    N        0.20355    0.13057    0.27409    1.000
    Si1073   Si       0.19094    0.14502    0.31169    1.000
    N1074    N        0.20318    0.18661    0.31808    1.000
    N1075    N        0.20031    0.24509    0.26003    1.000
    Si1076   Si       0.16537    0.19814    0.33520    1.000
    N1077    N        0.18531    0.02623    0.41937    1.000
    N1078    N        0.20667    0.07948    0.46304    1.000
    Si1079   Si       0.17965    0.11212    0.43190    1.000
    N1080    N        0.21391    0.10567    0.40661    1.000
    Si1081   Si       0.21376    0.03868    0.44755    1.000
    Si1082   Si       0.21935    0.11914    0.48744    1.000
    Si1083   Si       0.16954    0.07651    0.48930    1.000
    Si1084   Si       0.19677    0.01111    0.37932    1.000
    N1085    N        0.20563    0.20271    0.49188    1.000
    N1086    N        0.21849    0.19373    0.42219    1.000
    Si1087   Si       0.18659    0.22034    0.40922    1.000
    Si1088   Si       0.19434    0.18089    0.45678    1.000
    N1089    N        0.18490    0.13885    0.46838    1.000
    N1090    N        0.16532    0.19930    0.37832    1.000
    Si1091   Si       0.17892    0.09611    0.60290    1.000
    N1092    N        0.18157    0.05465    0.58410    1.000
    N1093    N        0.19580    0.09530    0.52280    1.000
    Si1094   Si       0.19449    0.05430    0.54336    1.000
    N1095    N        0.21423    0.11083    0.58168    1.000
    Si1096   Si       0.18494    0.02157    0.61331    1.000
    N1097    N        0.16940    0.03874    0.51037    1.000
    Si1098   Si       0.19846    0.13532    0.54885    1.000
    N1099    N        0.20645    0.17620    0.56793    1.000
    Si1100   Si       0.19192    0.20987    0.59355    1.000
    N1101    N        0.18935    0.23626    0.54810    1.000
    Si1102   Si       0.18805    0.24059    0.50448    1.000
    Si1103   Si       0.22206    0.19358    0.53113    1.000
    N1104    N        0.18133    0.01845    0.66009    1.000
    N1105    N        0.19273    0.08371    0.64161    1.000
    N1106    N        0.17746    0.06737    0.71483    1.000
    Si1107   Si       0.22029    0.06690    0.72806    1.000
    Si1108   Si       0.17024    0.06030    0.67174    1.000
    Si1109   Si       0.16909    0.02420    0.73948    1.000
    N1110    N        0.17887    0.13318    0.73234    1.000
    N1111    N        0.21413    0.02904    0.74671    1.000
    N1112    N        0.18574    0.18624    0.63172    1.000
    Si1113   Si       0.17875    0.22564    0.73032    1.000
    Si1114   Si       0.20544    0.21253    0.66257    1.000
    N1115    N        0.18305    0.19643    0.69746    1.000
    Si1116   Si       0.18005    0.15429    0.69506    1.000
    N1117    N        0.21722    0.13784    0.67820    1.000
    N1118    N        0.20278    0.25587    0.66433    1.000
    N1119    N        0.22232    0.23589    0.73952    1.000
    N1120    N        0.18512    0.06258    0.82865    1.000
    Si1121   Si       0.18442    0.01905    0.81570    1.000
    Si1122   Si       0.21999    0.07702    0.85258    1.000
    Si1123   Si       0.21561    0.13530    0.75751    1.000
    N1124    N        0.20429    0.14530    0.79682    1.000
    Si1125   Si       0.19785    0.17862    0.82205    1.000
    Si1126   Si       0.20196    0.24167    0.79000    1.000
    N1127    N        0.17574    0.24750    0.82628    1.000
    N1128    N        0.16785    0.21768    0.77192    1.000
    Si1129   Si       0.21551    0.05071    0.97436    1.000
    N1130    N        0.21156    0.10792    0.88586    1.000
    N1131    N        0.18876    0.12106    0.95300    1.000
    Si1132   Si       0.19021    0.08929    0.92349    1.000
    N1133    N        0.21434    0.05505    0.93223    1.000
    Si1134   Si       0.16808    0.11798    0.87978    1.000
    Si1135   Si       0.18217    0.10998    0.99381    1.000
    N1136    N        0.21905    0.01216    0.99667    1.000
    Si1137   Si       0.19801    0.15717    0.93142    1.000
    N1138    N        0.19706    0.19803    0.94809    1.000
    N1139    N        0.16830    0.15748    0.89713    1.000
    Si1140   Si       0.22056    0.20242    0.98427    1.000
    Si1141   Si       0.19890    0.31320    0.07445    1.000
    Si1142   Si       0.20905    0.32080    0.00512    1.000
    N1143    N        0.17607    0.34668    0.06155    1.000
    N1144    N        0.22319    0.29588    0.03924    1.000
    N1145    N        0.22123    0.31300    0.11153    1.000
    N1146    N        0.17226    0.28034    0.08031    1.000
    Si1147   Si       0.18824    0.37867    0.03312    1.000
    N1148    N        0.16628    0.30934    0.00244    1.000
    N1149    N        0.20513    0.41009    0.05781    1.000
    Si1150   Si       0.17517    0.41269    0.08726    1.000
    N1151    N        0.18227    0.45271    0.10756    1.000
    N1152    N        0.21400    0.45441    0.00335    1.000
    N1153    N        0.17534    0.38709    0.12298    1.000
    Si1154   Si       0.22529    0.46285    0.10864    1.000
    Si1155   Si       0.20906    0.28645    0.22301    1.000
    Si1156   Si       0.19744    0.30179    0.14909    1.000
    Si1157   Si       0.20663    0.35333    0.20983    1.000
    N1158    N        0.21833    0.31260    0.18714    1.000
    N1159    N        0.16420    0.35823    0.20995    1.000
    N1160    N        0.19071    0.25752    0.14161    1.000
    Si1161   Si       0.21160    0.48469    0.23109    1.000
    Si1162   Si       0.19909    0.40972    0.15120    1.000
    N1163    N        0.22039    0.38400    0.17938    1.000
    N1164    N        0.20049    0.48706    0.18817    1.000
    N1165    N        0.16867    0.42731    0.17701    1.000
    Si1166   Si       0.19565    0.35410    0.34237    1.000
    Si1167   Si       0.18164    0.29413    0.33985    1.000
    N1168    N        0.21649    0.27122    0.32719    1.000
    N1169    N        0.17015    0.32987    0.31734    1.000
    N1170    N        0.20302    0.31989    0.36810    1.000
    N1171    N        0.21733    0.37197    0.24954    1.000
    N1172    N        0.20376    0.45794    0.35866    1.000
    Si1173   Si       0.16895    0.48214    0.36495    1.000
    N1174    N        0.18379    0.38725    0.36898    1.000
    N1175    N        0.19458    0.44505    0.24828    1.000
    Si1176   Si       0.22406    0.49284    0.33972    1.000
    N1177    N        0.18867    0.26291    0.41063    1.000
    N1178    N        0.21511    0.33043    0.43461    1.000
    Si1179   Si       0.21505    0.29824    0.40368    1.000
    Si1180   Si       0.17270    0.33939    0.44535    1.000
    N1181    N        0.21570    0.27107    0.49219    1.000
    N1182    N        0.17045    0.33568    0.48774    1.000
    N1183    N        0.17076    0.49419    0.40898    1.000
    Si1184   Si       0.21245    0.41921    0.37880    1.000
    Si1185   Si       0.18386    0.41303    0.45631    1.000
    N1186    N        0.21329    0.41725    0.42373    1.000
    N1187    N        0.19885    0.39588    0.49347    1.000
    N1188    N        0.18591    0.30395    0.54586    1.000
    N1189    N        0.20775    0.35509    0.60744    1.000
    N1190    N        0.18301    0.29142    0.60451    1.000
    Si1191   Si       0.18176    0.33438    0.57972    1.000
    Si1192   Si       0.20019    0.30966    0.50652    1.000
    Si1193   Si       0.16796    0.26690    0.56987    1.000
    Si1194   Si       0.19717    0.47395    0.56465    1.000
    N1195    N        0.17278    0.47523    0.60032    1.000
    N1196    N        0.17087    0.49326    0.53571    1.000
    N1197    N        0.21986    0.43789    0.55090    1.000
    Si1198   Si       0.21760    0.27251    0.62544    1.000
    Si1199   Si       0.20195    0.34646    0.73065    1.000
    N1200    N        0.21203    0.30305    0.71873    1.000
    Si1201   Si       0.18390    0.28249    0.69193    1.000
    N1202    N        0.16712    0.31528    0.66720    1.000
    Si1203   Si       0.20790    0.44821    0.73617    1.000
    N1204    N        0.18409    0.39549    0.67045    1.000
    N1205    N        0.17974    0.47037    0.71262    1.000
    Si1206   Si       0.19466    0.39129    0.62777    1.000
    Si1207   Si       0.21008    0.31654    0.80436    1.000
    N1208    N        0.20838    0.34644    0.77332    1.000
    N1209    N        0.17314    0.31557    0.82920    1.000
    Si1210   Si       0.19677    0.32995    0.86327    1.000
    N1211    N        0.22014    0.27985    0.78450    1.000
    Si1212   Si       0.16678    0.27775    0.85454    1.000
    Si1213   Si       0.20939    0.38890    0.78429    1.000
    N1214    N        0.19365    0.40292    0.82277    1.000
    Si1215   Si       0.21087    0.40488    0.86198    1.000
    N1216    N        0.19136    0.41290    0.75434    1.000
    N1217    N        0.19036    0.49931    0.87522    1.000
    Si1218   Si       0.22010    0.50867    0.78092    1.000
    N1219    N        0.19542    0.36947    0.88167    1.000
    N1220    N        0.17907    0.33536    0.93461    1.000
    N1221    N        0.19024    0.29200    0.88707    1.000
    Si1222   Si       0.20020    0.29475    0.93309    1.000
    Si1223   Si       0.20623    0.37179    0.92466    1.000
    N1224    N        0.17515    0.26335    0.95189    1.000
    Si1225   Si       0.18476    0.47947    0.98428    1.000
    N1226    N        0.19032    0.43345    0.88666    1.000
    Si1227   Si       0.21014    0.47058    0.89753    1.000
    N1228    N        0.20464    0.47680    0.94361    1.000
    N1229    N        0.20747    0.40532    0.95082    1.000
    Si1230   Si       0.18897    0.58691    0.06858    1.000
    N1231    N        0.19100    0.55735    0.03504    1.000
    N1232    N        0.21878    0.58405    0.10085    1.000
    N1233    N        0.17844    0.65841    0.11447    1.000
    N1234    N        0.19053    0.72075    0.08787    1.000
    Si1235   Si       0.19233    0.67811    0.07786    1.000
    N1236    N        0.17486    0.68427    0.03773    1.000
    Si1237   Si       0.20657    0.70421    0.01461    1.000
    Si1238   Si       0.22480    0.74362    0.07359    1.000
    N1239    N        0.19042    0.73750    0.99523    1.000
    N1240    N        0.17862    0.53696    0.14272    1.000
    N1241    N        0.19129    0.60830    0.16021    1.000
    Si1242   Si       0.21396    0.52031    0.16253    1.000
    Si1243   Si       0.20964    0.59183    0.19485    1.000
    Si1244   Si       0.18706    0.57783    0.12909    1.000
    N1245    N        0.18621    0.58197    0.22909    1.000
    Si1246   Si       0.20416    0.64690    0.14684    1.000
    N1247    N        0.21842    0.72240    0.22632    1.000
    N1248    N        0.20177    0.67861    0.17651    1.000
    Si1249   Si       0.18201    0.55744    0.33027    1.000
    Si1250   Si       0.20533    0.55332    0.25521    1.000
    N1251    N        0.19140    0.57516    0.29152    1.000
    N1252    N        0.18696    0.51572    0.34206    1.000
    N1253    N        0.22001    0.57445    0.34560    1.000
    N1254    N        0.18825    0.51510    0.25017    1.000
    Si1255   Si       0.16615    0.60170    0.26422    1.000
    N1256    N        0.18606    0.63785    0.26346    1.000
    Si1257   Si       0.18528    0.71316    0.25626    1.000
    Si1258   Si       0.20068    0.70604    0.32912    1.000
    N1259    N        0.21259    0.69644    0.28720    1.000
    N1260    N        0.21532    0.67851    0.36267    1.000
    Si1261   Si       0.22391    0.65531    0.27287    1.000
    N1262    N        0.16467    0.74218    0.28052    1.000
    Si1263   Si       0.20088    0.51447    0.43276    1.000
    N1264    N        0.20723    0.55271    0.41245    1.000
    Si1265   Si       0.18699    0.58935    0.42561    1.000
    N1266    N        0.17987    0.51753    0.47333    1.000
    N1267    N        0.20696    0.62692    0.41624    1.000
    Si1268   Si       0.19130    0.55838    0.49009    1.000
    N1269    N        0.16946    0.59159    0.46834    1.000
    N1270    N        0.21954    0.66250    0.47479    1.000
    Si1271   Si       0.18925    0.69367    0.46466    1.000
    N1272    N        0.18158    0.69102    0.42206    1.000
    Si1273   Si       0.18985    0.65882    0.39203    1.000
    N1274    N        0.17163    0.75300    0.38336    1.000
    N1275    N        0.21072    0.72766    0.48393    1.000
    N1276    N        0.19409    0.59493    0.59526    1.000
    N1277    N        0.19042    0.55902    0.53360    1.000
    Si1278   Si       0.21530    0.58713    0.55630    1.000
    Si1279   Si       0.17509    0.51549    0.62086    1.000
    N1280    N        0.17865    0.73538    0.54720    1.000
    N1281    N        0.19034    0.69234    0.60372    1.000
    N1282    N        0.18583    0.66505    0.53930    1.000
    Si1283   Si       0.21315    0.74522    0.52359    1.000
    Si1284   Si       0.17081    0.69654    0.56696    1.000
    Si1285   Si       0.22056    0.65330    0.51736    1.000
    N1286    N        0.21343    0.53376    0.63035    1.000
    Si1287   Si       0.19865    0.62191    0.68460    1.000
    N1288    N        0.20450    0.58032    0.69135    1.000
    Si1289   Si       0.18874    0.55843    0.72710    1.000
    N1290    N        0.22114    0.53464    0.74416    1.000
    Si1291   Si       0.21619    0.72279    0.62097    1.000
    N1292    N        0.22376    0.72881    0.70349    1.000
    N1293    N        0.17594    0.69441    0.67009    1.000
    N1294    N        0.18622    0.75029    0.63758    1.000
    Si1295   Si       0.17266    0.66709    0.63488    1.000
    Si1296   Si       0.20097    0.68911    0.70538    1.000
    N1297    N        0.19996    0.63674    0.64355    1.000
    Si1298   Si       0.17532    0.56260    0.79819    1.000
    N1299    N        0.21354    0.57687    0.81408    1.000
    N1300    N        0.18149    0.51842    0.79718    1.000
    N1301    N        0.17230    0.58492    0.75808    1.000
    Si1302   Si       0.18508    0.72037    0.77898    1.000
    Si1303   Si       0.20108    0.67664    0.83330    1.000
    N1304    N        0.21535    0.70624    0.80538    1.000
    N1305    N        0.18408    0.69448    0.74506    1.000
    Si1306   Si       0.21509    0.51957    0.94313    1.000
    N1307    N        0.20635    0.55472    0.92145    1.000
    N1308    N        0.19995    0.52392    0.98361    1.000
    N1309    N        0.20607    0.61773    0.95119    1.000
    Si1310   Si       0.18730    0.59315    0.92101    1.000
    N1311    N        0.21423    0.60544    0.88384    1.000
    Si1312   Si       0.18762    0.65423    0.96638    1.000
    Si1313   Si       0.20503    0.70309    0.91060    1.000
    N1314    N        0.21082    0.67557    0.87659    1.000
    N1315    N        0.18875    0.73850    0.89314    1.000
    N1316    N        0.22050    0.67349    0.98727    1.000
    N1317    N        0.17575    0.68441    0.93746    1.000
    Si1318   Si       0.20123    0.80910    0.09992    1.000
    N1319    N        0.21067    0.78441    0.06619    1.000
    Si1320   Si       0.22236    0.81306    0.03508    1.000
    N1321    N        0.21491    0.85491    0.03943    1.000
    Si1322   Si       0.22770    0.87974    0.07424    1.000
    N1323    N        0.17877    0.88539    0.07902    1.000
    N1324    N        0.20922    0.92676    0.04516    1.000
    Si1325   Si       0.18129    0.92759    0.07748    1.000
    N1326    N        0.18625    0.94914    0.11525    1.000
    Si1327   Si       0.20006    0.92021    0.00317    1.000
    N1328    N        0.16861    0.89051    0.00165    1.000
    Si1329   Si       0.20235    0.88070    0.17420    1.000
    N1330    N        0.17496    0.77838    0.23033    1.000
    N1331    N        0.19757    0.78299    0.13433    1.000
    Si1332   Si       0.21654    0.76510    0.22699    1.000
    N1333    N        0.16677    0.87545    0.15172    1.000
    N1334    N        0.19310    0.88832    0.21686    1.000
    Si1335   Si       0.18366    0.98731    0.19919    1.000
    N1336    N        0.16807    0.00224    0.23807    1.000
    N1337    N        0.20905    0.95860    0.22128    1.000
    Si1338   Si       0.22537    0.93877    0.13156    1.000
    N1339    N        0.22302    0.91754    0.16749    1.000
    N1340    N        0.19540    0.86958    0.33831    1.000
    N1341    N        0.18592    0.81826    0.28736    1.000
    Si1342   Si       0.16740    0.84110    0.31924    1.000
    Si1343   Si       0.16414    0.78502    0.27053    1.000
    N1344    N        0.18405    0.96267    0.29524    1.000
    Si1345   Si       0.20892    0.96718    0.33157    1.000
    Si1346   Si       0.20000    0.98000    0.25919    1.000
    N1347    N        0.17654    0.97591    0.36095    1.000
    Si1348   Si       0.19579    0.89686    0.37103    1.000
    Si1349   Si       0.17437    0.83973    0.44918    1.000
    N1350    N        0.21651    0.83847    0.44337    1.000
    N1351    N        0.16713    0.84453    0.49245    1.000
    Si1352   Si       0.21417    0.75985    0.38040    1.000
    N1353    N        0.22134    0.91877    0.47928    1.000
    N1354    N        0.17766    0.96855    0.48854    1.000
    N1355    N        0.21376    0.95011    0.42852    1.000
    N1356    N        0.21961    0.88926    0.40692    1.000
    Si1357   Si       0.20299    0.91070    0.44008    1.000
    Si1358   Si       0.21830    0.96182    0.47188    1.000
    N1359    N        0.21169    0.78867    0.51639    1.000
    Si1360   Si       0.20209    0.78348    0.61416    1.000
    N1361    N        0.17151    0.79506    0.58662    1.000
    Si1362   Si       0.17554    0.80250    0.49799    1.000
    Si1363   Si       0.18589    0.90044    0.56117    1.000
    N1364    N        0.17763    0.92687    0.59513    1.000
    Si1365   Si       0.19343    0.83476    0.72598    1.000
    N1366    N        0.21486    0.79931    0.71123    1.000
    N1367    N        0.20418    0.81688    0.64314    1.000
    Si1368   Si       0.17868    0.85120    0.65406    1.000
    N1369    N        0.16913    0.85343    0.69613    1.000
    N1370    N        0.22404    0.86192    0.74360    1.000
    Si1371   Si       0.20060    0.75946    0.72225    1.000
    Si1372   Si       0.20365    0.93105    0.63821    1.000
    N1373    N        0.22018    0.95573    0.67674    1.000
    Si1374   Si       0.18477    0.98105    0.68109    1.000
    N1375    N        0.20661    0.88661    0.64603    1.000
    Si1376   Si       0.20185    0.79621    0.78594    1.000
    N1377    N        0.17268    0.82621    0.76273    1.000
    N1378    N        0.17174    0.80106    0.81942    1.000
    N1379    N        0.19645    0.75979    0.76408    1.000
    N1380    N        0.20590    0.81489    0.87636    1.000
    Si1381   Si       0.16668    0.82036    0.85831    1.000
    N1382    N        0.20293    0.89680    0.79841    1.000
    Si1383   Si       0.20531    0.90007    0.75520    1.000
    N1384    N        0.21932    0.99411    0.80623    1.000
    Si1385   Si       0.17876    0.96607    0.86809    1.000
    N1386    N        0.17310    0.92076    0.86287    1.000
    N1387    N        0.22342    0.96005    0.86505    1.000
    Si1388   Si       0.16812    0.91129    0.82117    1.000
    N1389    N        0.20933    0.80789    0.99382    1.000
    Si1390   Si       0.20066    0.82635    0.95504    1.000
    N1391    N        0.19858    0.78385    0.93852    1.000
    Si1392   Si       0.21130    0.77651    0.89776    1.000
    Si1393   Si       0.21552    0.76927    0.97564    1.000
    N1394    N        0.22606    0.85002    0.92659    1.000
    N1395    N        0.19142    0.95083    0.97302    1.000
    Si1396   Si       0.18383    0.93748    0.93200    1.000
    Si1397   Si       0.18005    0.98960    0.99062    1.000
    N1398    N        0.22207    0.91838    0.92047    1.000
    Si1399   Si       0.24628    0.08782    0.02759    1.000
    N1400    N        0.23271    0.05231    0.04810    1.000
    Si1401   Si       0.24550    0.01435    0.03097    1.000
    N1402    N        0.27948    0.10871    0.04621    1.000
    Si1403   Si       0.25002    0.20528    0.07655    1.000
    N1404    N        0.24844    0.16690    0.05871    1.000
    N1405    N        0.22448    0.24393    0.99747    1.000
    N1406    N        0.26348    0.20219    0.11905    1.000
    N1407    N        0.26249    0.04781    0.21766    1.000
    Si1408   Si       0.24474    0.10169    0.13151    1.000
    N1409    N        0.24778    0.11336    0.22432    1.000
    Si1410   Si       0.23071    0.07735    0.20902    1.000
    N1411    N        0.23030    0.07564    0.16405    1.000
    Si1412   Si       0.24542    0.00732    0.21755    1.000
    N1413    N        0.23219    0.24901    0.20556    1.000
    N1414    N        0.22873    0.18542    0.24245    1.000
    Si1415   Si       0.27601    0.24349    0.20460    1.000
    N1416    N        0.28129    0.15429    0.17333    1.000
    N1417    N        0.22609    0.14201    0.13538    1.000
    Si1418   Si       0.25019    0.17356    0.15019    1.000
    N1419    N        0.25928    0.09067    0.34250    1.000
    Si1420   Si       0.26084    0.07324    0.30111    1.000
    Si1421   Si       0.23345    0.11624    0.36812    1.000
    N1422    N        0.28159    0.03625    0.30684    1.000
    N1423    N        0.24155    0.15823    0.36617    1.000
    Si1424   Si       0.24358    0.18732    0.33193    1.000
    N1425    N        0.26919    0.17485    0.30014    1.000
    N1426    N        0.25286    0.21908    0.36108    1.000
    N1427    N        0.26237    0.24262    0.28314    1.000
    Si1428   Si       0.26093    0.20270    0.26582    1.000
    N1429    N        0.27734    0.10709    0.40249    1.000
    Si1430   Si       0.26750    0.01920    0.39743    1.000
    Si1431   Si       0.24617    0.09161    0.43111    1.000
    N1432    N        0.25596    0.11907    0.46429    1.000
    N1433    N        0.25370    0.04911    0.42800    1.000
    Si1434   Si       0.25120    0.19069    0.39393    1.000
    N1435    N        0.27661    0.23101    0.47419    1.000
    Si1436   Si       0.25534    0.10426    0.58804    1.000
    Si1437   Si       0.25324    0.02891    0.57661    1.000
    N1438    N        0.27220    0.06717    0.57256    1.000
    N1439    N        0.22829    0.02606    0.54050    1.000
    N1440    N        0.22777    0.01455    0.60945    1.000
    N1441    N        0.25792    0.21156    0.54739    1.000
    Si1442   Si       0.26489    0.22249    0.58897    1.000
    N1443    N        0.23355    0.14809    0.51988    1.000
    Si1444   Si       0.27572    0.14190    0.52696    1.000
    N1445    N        0.22714    0.23167    0.60910    1.000
    N1446    N        0.27851    0.13657    0.57101    1.000
    N1447    N        0.24030    0.07406    0.69193    1.000
    N1448    N        0.25980    0.10700    0.63085    1.000
    Si1449   Si       0.22851    0.10039    0.65991    1.000
    N1450    N        0.24708    0.20163    0.67416    1.000
    Si1451   Si       0.24666    0.16289    0.69516    1.000
    N1452    N        0.24014    0.16659    0.73877    1.000
    Si1453   Si       0.25727    0.08567    0.79334    1.000
    N1454    N        0.25182    0.10225    0.83359    1.000
    N1455    N        0.26178    0.04278    0.79992    1.000
    Si1456   Si       0.27564    0.03040    0.84072    1.000
    N1457    N        0.23508    0.09633    0.76019    1.000
    Si1458   Si       0.24264    0.01322    0.77519    1.000
    N1459    N        0.24415    0.04434    0.86580    1.000
    Si1460   Si       0.25897    0.19236    0.82758    1.000
    Si1461   Si       0.24604    0.20548    0.75687    1.000
    N1462    N        0.23020    0.20883    0.80053    1.000
    N1463    N        0.22690    0.17201    0.85361    1.000
    Si1464   Si       0.25094    0.04697    0.90959    1.000
    N1465    N        0.25012    0.07597    0.98530    1.000
    N1466    N        0.26853    0.01021    0.92134    1.000
    N1467    N        0.28072    0.08276    0.91632    1.000
    N1468    N        0.23987    0.15382    0.92392    1.000
    Si1469   Si       0.27394    0.16045    0.94914    1.000
    N1470    N        0.26051    0.18702    0.98169    1.000
    Si1471   Si       0.24056    0.14170    0.88193    1.000
    Si1472   Si       0.26475    0.37237    0.01498    1.000
    Si1473   Si       0.26682    0.30327    0.03899    1.000
    N1474    N        0.27857    0.28677    0.07714    1.000
    Si1475   Si       0.26159    0.29824    0.11639    1.000
    N1476    N        0.27903    0.28443    0.00030    1.000
    N1477    N        0.27934    0.34565    0.04596    1.000
    N1478    N        0.22327    0.36037    0.01442    1.000
    N1479    N        0.26735    0.41667    0.01951    1.000
    N1480    N        0.24206    0.46696    0.06773    1.000
    Si1481   Si       0.26975    0.49570    0.05308    1.000
    Si1482   Si       0.23282    0.43607    0.03924    1.000
    Si1483   Si       0.26305    0.31511    0.18406    1.000
    N1484    N        0.26721    0.35151    0.20844    1.000
    N1485    N        0.25598    0.26314    0.14332    1.000
    N1486    N        0.28358    0.32302    0.14519    1.000
    Si1487   Si       0.25995    0.39181    0.19501    1.000
    N1488    N        0.25477    0.49337    0.23591    1.000
    Si1489   Si       0.27950    0.41758    0.12709    1.000
    N1490    N        0.25304    0.42571    0.22325    1.000
    N1491    N        0.23778    0.49659    0.13259    1.000
    Si1492   Si       0.28018    0.45820    0.23028    1.000
    N1493    N        0.23634    0.42468    0.13068    1.000
    Si1494   Si       0.28268    0.49746    0.12453    1.000
    Si1495   Si       0.23829    0.34259    0.27502    1.000
    N1496    N        0.22993    0.35825    0.31482    1.000
    Si1497   Si       0.22711    0.26856    0.28404    1.000
    Si1498   Si       0.25153    0.26069    0.35196    1.000
    N1499    N        0.22566    0.30454    0.26112    1.000
    N1500    N        0.25062    0.40573    0.36328    1.000
    Si1501   Si       0.25762    0.39169    0.32048    1.000
    N1502    N        0.24804    0.49133    0.30403    1.000
    N1503    N        0.24157    0.42262    0.29511    1.000
    Si1504   Si       0.27228    0.45415    0.30726    1.000
    Si1505   Si       0.22535    0.41487    0.25605    1.000
    Si1506   Si       0.24968    0.33772    0.45917    1.000
    Si1507   Si       0.25878    0.27245    0.48247    1.000
    N1508    N        0.25282    0.27944    0.39142    1.000
    N1509    N        0.27294    0.30195    0.45525    1.000
    N1510    N        0.26642    0.37773    0.45795    1.000
    Si1511   Si       0.25066    0.41682    0.44407    1.000
    N1512    N        0.24715    0.43955    0.48261    1.000
    N1513    N        0.27721    0.43854    0.41813    1.000
    Si1514   Si       0.27836    0.47879    0.43051    1.000
    Si1515   Si       0.26659    0.34866    0.53022    1.000
    Si1516   Si       0.24769    0.33801    0.60542    1.000
    N1517    N        0.25637    0.32539    0.56448    1.000
    N1518    N        0.23589    0.33391    0.50150    1.000
    N1519    N        0.28002    0.27169    0.52003    1.000
    N1520    N        0.26558    0.39038    0.53437    1.000
    N1521    N        0.23641    0.49213    0.58006    1.000
    Si1522   Si       0.25674    0.45332    0.57154    1.000
    Si1523   Si       0.23131    0.41328    0.51565    1.000
    Si1524   Si       0.27229    0.46945    0.50041    1.000
    N1525    N        0.28423    0.43606    0.60414    1.000
    Si1526   Si       0.27571    0.36612    0.70175    1.000
    N1527    N        0.23165    0.36917    0.70784    1.000
    N1528    N        0.24678    0.30291    0.63276    1.000
    Si1529   Si       0.28067    0.45615    0.71601    1.000
    Si1530   Si       0.27777    0.40341    0.63145    1.000
    Si1531   Si       0.22562    0.40506    0.68317    1.000
    N1532    N        0.23552    0.40497    0.64052    1.000
    N1533    N        0.24215    0.43526    0.71047    1.000
    N1534    N        0.23286    0.32581    0.84085    1.000
    Si1535   Si       0.27494    0.32076    0.84321    1.000
    Si1536   Si       0.28063    0.36486    0.78532    1.000
    Si1537   Si       0.23628    0.27782    0.74369    1.000
    N1538    N        0.28025    0.28050    0.74178    1.000
    Si1539   Si       0.26324    0.44061    0.78315    1.000
    N1540    N        0.25163    0.39650    0.78728    1.000
    N1541    N        0.27476    0.45525    0.82326    1.000
    Si1542   Si       0.27216    0.44199    0.86423    1.000
    N1543    N        0.23123    0.46886    0.76759    1.000
    Si1544   Si       0.24729    0.27075    0.97323    1.000
    N1545    N        0.22813    0.31108    0.96771    1.000
    N1546    N        0.24673    0.35500    0.91985    1.000
    Si1547   Si       0.26604    0.33270    0.95298    1.000
    Si1548   Si       0.27653    0.37552    0.89553    1.000
    N1549    N        0.24223    0.26824    0.92935    1.000
    N1550    N        0.25272    0.40436    0.87339    1.000
    N1551    N        0.26999    0.45045    0.95741    1.000
    Si1552   Si       0.22733    0.44288    0.96267    1.000
    Si1553   Si       0.27840    0.48155    0.92749    1.000
    N1554    N        0.25412    0.46963    0.89339    1.000
    N1555    N        0.25776    0.52750    0.02728    1.000
    Si1556   Si       0.25463    0.60129    0.11609    1.000
    Si1557   Si       0.22452    0.54897    0.00916    1.000
    N1558    N        0.23852    0.72089    0.03782    1.000
    N1559    N        0.22944    0.66023    0.07030    1.000
    Si1560   Si       0.27052    0.66279    0.07769    1.000
    N1561    N        0.26332    0.75097    0.09281    1.000
    Si1562   Si       0.28111    0.71343    0.02904    1.000
    N1563    N        0.27554    0.68786    0.11274    1.000
    N1564    N        0.23015    0.55448    0.18206    1.000
    Si1565   Si       0.26671    0.57615    0.18479    1.000
    N1566    N        0.24848    0.61033    0.20422    1.000
    N1567    N        0.27963    0.57832    0.14417    1.000
    Si1568   Si       0.28158    0.65792    0.14414    1.000
    Si1569   Si       0.23493    0.70406    0.18815    1.000
    N1570    N        0.24499    0.63654    0.13791    1.000
    N1571    N        0.24263    0.73229    0.15513    1.000
    Si1572   Si       0.27285    0.64606    0.21426    1.000
    N1573    N        0.27181    0.67807    0.18436    1.000
    Si1574   Si       0.27846    0.72793    0.12513    1.000
    N1575    N        0.24518    0.55410    0.27076    1.000
    Si1576   Si       0.23953    0.57980    0.30620    1.000
    N1577    N        0.24638    0.62241    0.28967    1.000
    Si1578   Si       0.26457    0.51685    0.27283    1.000
    N1579    N        0.25186    0.51574    0.36550    1.000
    Si1580   Si       0.25756    0.71230    0.25198    1.000
    Si1581   Si       0.26516    0.74000    0.32838    1.000
    N1582    N        0.27335    0.64049    0.35974    1.000
    N1583    N        0.25864    0.66903    0.25014    1.000
    N1584    N        0.28097    0.72896    0.28854    1.000
    N1585    N        0.22362    0.74021    0.34245    1.000
    N1586    N        0.28071    0.70446    0.35421    1.000
    Si1587   Si       0.28432    0.63797    0.27492    1.000
    N1588    N        0.27072    0.57760    0.39361    1.000
    Si1589   Si       0.25762    0.52924    0.46953    1.000
    Si1590   Si       0.23647    0.55416    0.37996    1.000
    N1591    N        0.26540    0.61348    0.45736    1.000
    N1592    N        0.23133    0.56164    0.47744    1.000
    N1593    N        0.24260    0.50213    0.43876    1.000
    N1594    N        0.27739    0.72336    0.47135    1.000
    N1595    N        0.26412    0.67346    0.41922    1.000
    Si1596   Si       0.23943    0.64301    0.44075    1.000
    Si1597   Si       0.24070    0.74349    0.45642    1.000
    N1598    N        0.23223    0.74410    0.41632    1.000
    Si1599   Si       0.25533    0.67656    0.37783    1.000
    N1600    N        0.24785    0.56120    0.56970    1.000
    Si1601   Si       0.24550    0.52843    0.60275    1.000
    Si1602   Si       0.27161    0.53767    0.53913    1.000
    N1603    N        0.22862    0.61181    0.52318    1.000
    N1604    N        0.25938    0.51113    0.50806    1.000
    Si1605   Si       0.22593    0.61609    0.61519    1.000
    N1606    N        0.25264    0.62773    0.58357    1.000
    Si1607   Si       0.28310    0.59814    0.56543    1.000
    Si1608   Si       0.25268    0.59429    0.49409    1.000
    N1609    N        0.25460    0.74512    0.53365    1.000
    N1610    N        0.25286    0.67739    0.53310    1.000
    Si1611   Si       0.27303    0.71047    0.51382    1.000
    Si1612   Si       0.27612    0.65896    0.56387    1.000
    N1613    N        0.23232    0.75770    0.59712    1.000
    N1614    N        0.25660    0.53889    0.68654    1.000
    N1615    N        0.25155    0.59198    0.64087    1.000
    Si1616   Si       0.26091    0.53127    0.72915    1.000
    Si1617   Si       0.22968    0.56153    0.66042    1.000
    N1618    N        0.22241    0.65330    0.70451    1.000
    N1619    N        0.25264    0.70973    0.64219    1.000
    Si1620   Si       0.25375    0.64830    0.73147    1.000
    Si1621   Si       0.25704    0.73690    0.67502    1.000
    Si1622   Si       0.25204    0.55796    0.82435    1.000
    N1623    N        0.25648    0.52112    0.80413    1.000
    N1624    N        0.24572    0.61506    0.76016    1.000
    Si1625   Si       0.23342    0.61065    0.80045    1.000
    N1626    N        0.27375    0.59411    0.81530    1.000
    N1627    N        0.26464    0.55116    0.86624    1.000
    Si1628   Si       0.25720    0.70264    0.79153    1.000
    N1629    N        0.26851    0.74133    0.77089    1.000
    N1630    N        0.26770    0.68233    0.75479    1.000
    N1631    N        0.22817    0.64501    0.82647    1.000
    N1632    N        0.28373    0.69788    0.82615    1.000
    Si1633   Si       0.23877    0.56960    0.89432    1.000
    Si1634   Si       0.24719    0.60716    0.96130    1.000
    N1635    N        0.26687    0.58661    0.92596    1.000
    N1636    N        0.25911    0.51742    0.93791    1.000
    N1637    N        0.25199    0.57698    0.99105    1.000
    N1638    N        0.27874    0.64130    0.88100    1.000
    Si1639   Si       0.23782    0.64177    0.87036    1.000
    N1640    N        0.24177    0.70901    0.93248    1.000
    N1641    N        0.27152    0.64476    0.95194    1.000
    Si1642   Si       0.25581    0.68320    0.96365    1.000
    Si1643   Si       0.26520    0.74668    0.93351    1.000
    Si1644   Si       0.24789    0.87100    0.01419    1.000
    N1645    N        0.26347    0.80032    0.03483    1.000
    N1646    N        0.22587    0.84559    0.10401    1.000
    Si1647   Si       0.28538    0.77530    0.06358    1.000
    N1648    N        0.26846    0.89007    0.04861    1.000
    Si1649   Si       0.24728    0.94187    0.06176    1.000
    N1650    N        0.23505    0.98469    0.06369    1.000
    N1651    N        0.24005    0.91712    0.09666    1.000
    Si1652   Si       0.25125    0.99780    0.10106    1.000
    Si1653   Si       0.25459    0.82791    0.20641    1.000
    Si1654   Si       0.23440    0.77417    0.15433    1.000
    Si1655   Si       0.25484    0.84298    0.13636    1.000
    N1656    N        0.23634    0.85175    0.17345    1.000
    N1657    N        0.23589    0.78781    0.19717    1.000
    N1658    N        0.26497    0.80050    0.13766    1.000
    N1659    N        0.24588    0.84647    0.24522    1.000
    N1660    N        0.27905    0.98406    0.20450    1.000
    Si1661   Si       0.28454    0.98837    0.16051    1.000
    Si1662   Si       0.22387    0.92008    0.21095    1.000
    N1663    N        0.25349    0.97210    0.13536    1.000
    N1664    N        0.26308    0.90978    0.22602    1.000
    N1665    N        0.25055    0.82635    0.31123    1.000
    Si1666   Si       0.23888    0.86501    0.32834    1.000
    Si1667   Si       0.25857    0.80999    0.35111    1.000
    N1668    N        0.25857    0.85486    0.36614    1.000
    Si1669   Si       0.22789    0.81911    0.27426    1.000
    N1670    N        0.23543    0.77783    0.26331    1.000
    Si1671   Si       0.26583    0.88237    0.26028    1.000
    N1672    N        0.23619    0.00188    0.25898    1.000
    Si1673   Si       0.26695    0.00027    0.28907    1.000
    N1674    N        0.25124    0.89528    0.29984    1.000
    N1675    N        0.24888    0.96982    0.31253    1.000
    Si1676   Si       0.25914    0.92978    0.32526    1.000
    N1677    N        0.22307    0.92921    0.35490    1.000
    N1678    N        0.22536    0.80278    0.37815    1.000
    N1679    N        0.25990    0.78191    0.47105    1.000
    Si1680   Si       0.24122    0.85154    0.40602    1.000
    Si1681   Si       0.25584    0.82610    0.46060    1.000
    N1682    N        0.27957    0.84034    0.42754    1.000
    N1683    N        0.22896    0.00701    0.47260    1.000
    N1684    N        0.27798    0.93627    0.39871    1.000
    Si1685   Si       0.23719    0.94915    0.39266    1.000
    N1686    N        0.23586    0.99394    0.38029    1.000
    N1687    N        0.26104    0.80823    0.56188    1.000
    Si1688   Si       0.25890    0.79667    0.51719    1.000
    N1689    N        0.25979    0.87427    0.60609    1.000
    Si1690   Si       0.26581    0.76480    0.57086    1.000
    Si1691   Si       0.27971    0.83931    0.58665    1.000
    N1692    N        0.26132    0.83853    0.50203    1.000
    N1693    N        0.28017    0.99589    0.57993    1.000
    N1694    N        0.25420    0.96263    0.50798    1.000
    Si1695   Si       0.24451    0.91745    0.51436    1.000
    Si1696   Si       0.24976    0.91220    0.58720    1.000
    N1697    N        0.23958    0.94306    0.61524    1.000
    Si1698   Si       0.25740    0.98321    0.61686    1.000
    Si1699   Si       0.24914    0.00539    0.50958    1.000
    N1700    N        0.22748    0.90551    0.55158    1.000
    N1701    N        0.26210    0.77735    0.66076    1.000
    N1702    N        0.26256    0.83848    0.66917    1.000
    Si1703   Si       0.23284    0.80768    0.67418    1.000
    Si1704   Si       0.24924    0.87561    0.64690    1.000
    N1705    N        0.26628    0.89778    0.68129    1.000
    Si1706   Si       0.25004    0.93405    0.69846    1.000
    N1707    N        0.23316    0.93107    0.74137    1.000
    N1708    N        0.24245    0.80892    0.78373    1.000
    N1709    N        0.26987    0.86978    0.79659    1.000
    Si1710   Si       0.25975    0.84646    0.76363    1.000
    Si1711   Si       0.27393    0.77764    0.79081    1.000
    N1712    N        0.27601    0.76750    0.83231    1.000
    N1713    N        0.23144    0.88197    0.86118    1.000
    Si1714   Si       0.28283    0.78623    0.87058    1.000
    Si1715   Si       0.24032    0.89171    0.81960    1.000
    N1716    N        0.25831    0.93223    0.81155    1.000
    Si1717   Si       0.24688    0.96888    0.82870    1.000
    Si1718   Si       0.26416    0.94390    0.76842    1.000
    N1719    N        0.27260    0.98564    0.76160    1.000
    N1720    N        0.27614    0.82727    0.87118    1.000
    N1721    N        0.25775    0.77193    0.96722    1.000
    Si1722   Si       0.23623    0.84535    0.88327    1.000
    N1723    N        0.25435    0.76781    0.89709    1.000
    N1724    N        0.27543    0.84919    0.98650    1.000
    Si1725   Si       0.27764    0.80415    0.99132    1.000
    N1726    N        0.23178    0.89582    0.98486    1.000
    N1727    N        0.28408    0.88911    0.93149    1.000
    N1728    N        0.27983    0.92866    0.87745    1.000
    Si1729   Si       0.23609    0.92209    0.88090    1.000
    Si1730   Si       0.24339    0.88669    0.94285    1.000
    Si1731   Si       0.31903    0.09788    0.05779    1.000
    N1732    N        0.33196    0.06738    0.08404    1.000
    Si1733   Si       0.32150    0.02443    0.99956    1.000
    N1734    N        0.28894    0.01827    0.02783    1.000
    N1735    N        0.28966    0.01686    0.09341    1.000
    N1736    N        0.33863    0.10258    0.02006    1.000
    Si1737   Si       0.30545    0.05206    0.11868    1.000
    N1738    N        0.32624    0.13607    0.07890    1.000
    N1739    N        0.31993    0.24447    0.10691    1.000
    N1740    N        0.30883    0.16833    0.02471    1.000
    Si1741   Si       0.28906    0.14951    0.05880    1.000
    Si1742   Si       0.28838    0.20424    0.01207    1.000
    Si1743   Si       0.30585    0.25327    0.06788    1.000
    Si1744   Si       0.32540    0.13836    0.99979    1.000
    N1745    N        0.27893    0.22379    0.04980    1.000
    Si1746   Si       0.30022    0.04925    0.19596    1.000
    Si1747   Si       0.30497    0.11814    0.16123    1.000
    N1748    N        0.33175    0.02318    0.21011    1.000
    N1749    N        0.30604    0.09248    0.19754    1.000
    N1750    N        0.29049    0.03176    0.15652    1.000
    Si1751   Si       0.28912    0.10880    0.23523    1.000
    N1752    N        0.28780    0.09274    0.13048    1.000
    Si1753   Si       0.28891    0.23504    0.13320    1.000
    N1754    N        0.28570    0.21233    0.23196    1.000
    N1755    N        0.29928    0.15008    0.24403    1.000
    Si1756   Si       0.29875    0.17648    0.20964    1.000
    N1757    N        0.30132    0.22440    0.17238    1.000
    Si1758   Si       0.31577    0.03870    0.33391    1.000
    N1759    N        0.32930    0.08044    0.34593    1.000
    Si1760   Si       0.29062    0.08219    0.36959    1.000
    N1761    N        0.28732    0.09997    0.27822    1.000
    Si1762   Si       0.29482    0.14197    0.28737    1.000
    N1763    N        0.33363    0.22640    0.28695    1.000
    N1764    N        0.33356    0.15139    0.30411    1.000
    Si1765   Si       0.30084    0.25408    0.29765    1.000
    N1766    N        0.29335    0.03787    0.37153    1.000
    Si1767   Si       0.29623    0.10570    0.47141    1.000
    N1768    N        0.31305    0.07035    0.44886    1.000
    Si1769   Si       0.29105    0.03513    0.45286    1.000
    N1770    N        0.32263    0.13261    0.44688    1.000
    N1771    N        0.31138    0.25230    0.42027    1.000
    Si1772   Si       0.33089    0.16384    0.47600    1.000
    Si1773   Si       0.30082    0.14398    0.41016    1.000
    N1774    N        0.28486    0.18305    0.41943    1.000
    Si1775   Si       0.30242    0.21620    0.44376    1.000
    N1776    N        0.32463    0.14723    0.37598    1.000
    Si1777   Si       0.30454    0.07955    0.54809    1.000
    N1778    N        0.29208    0.10285    0.51492    1.000
    N1779    N        0.33302    0.04449    0.54601    1.000
    Si1780   Si       0.32466    0.01282    0.51767    1.000
    N1781    N        0.33505    0.10062    0.57288    1.000
    N1782    N        0.28708    0.02238    0.49595    1.000
    Si1783   Si       0.31980    0.13908    0.58567    1.000
    N1784    N        0.33139    0.22539    0.52452    1.000
    Si1785   Si       0.28905    0.21781    0.51624    1.000
    N1786    N        0.29790    0.17238    0.50550    1.000
    Si1787   Si       0.34007    0.19582    0.60953    1.000
    N1788    N        0.29563    0.20285    0.61446    1.000
    Si1789   Si       0.32744    0.06091    0.70421    1.000
    N1790    N        0.31536    0.08213    0.66906    1.000
    N1791    N        0.30656    0.02416    0.70791    1.000
    Si1792   Si       0.29512    0.11792    0.65454    1.000
    N1793    N        0.33518    0.08812    0.73600    1.000
    N1794    N        0.32777    0.15867    0.74490    1.000
    N1795    N        0.28608    0.14831    0.68497    1.000
    Si1796   Si       0.28544    0.21378    0.65805    1.000
    N1797    N        0.32427    0.13715    0.62796    1.000
    N1798    N        0.31959    0.20724    0.68320    1.000
    Si1799   Si       0.32074    0.16896    0.70165    1.000
    N1800    N        0.28758    0.25758    0.65573    1.000
    N1801    N        0.29948    0.09872    0.79367    1.000
    N1802    N        0.32392    0.02861    0.77405    1.000
    Si1803   Si       0.32792    0.07097    0.77404    1.000
    N1804    N        0.32730    0.10621    0.85393    1.000
    N1805    N        0.31934    0.03880    0.84266    1.000
    Si1806   Si       0.29173    0.12347    0.82991    1.000
    N1807    N        0.28719    0.16263    0.81029    1.000
    Si1808   Si       0.31226    0.17971    0.77969    1.000
    Si1809   Si       0.30663    0.25038    0.84343    1.000
    Si1810   Si       0.30820    0.25215    0.75952    1.000
    N1811    N        0.28940    0.21141    0.85399    1.000
    N1812    N        0.28780    0.21200    0.76397    1.000
    N1813    N        0.34033    0.00807    0.91495    1.000
    Si1814   Si       0.30650    0.01394    0.94026    1.000
    Si1815   Si       0.30589    0.11195    0.89665    1.000
    N1816    N        0.30964    0.05068    0.96502    1.000
    N1817    N        0.29716    0.12616    0.96695    1.000
    Si1818   Si       0.28471    0.08538    0.96084    1.000
    N1819    N        0.28350    0.14198    0.87638    1.000
    N1820    N        0.31531    0.22925    0.98677    1.000
    Si1821   Si       0.30627    0.17972    0.88159    1.000
    N1822    N        0.30930    0.25083    0.91999    1.000
    N1823    N        0.30345    0.18415    0.92623    1.000
    Si1824   Si       0.32401    0.21882    0.94561    1.000
    Si1825   Si       0.31131    0.36311    0.07031    1.000
    N1826    N        0.33289    0.27249    0.04134    1.000
    Si1827   Si       0.31954    0.27003    0.99921    1.000
    N1828    N        0.33533    0.33148    0.09081    1.000
    N1829    N        0.29405    0.38470    0.10293    1.000
    Si1830   Si       0.33741    0.49062    0.02236    1.000
    Si1831   Si       0.29246    0.44327    0.99544    1.000
    N1832    N        0.29885    0.47562    0.02224    1.000
    N1833    N        0.33766    0.38321    0.04255    1.000
    N1834    N        0.29732    0.45669    0.12024    1.000
    Si1835   Si       0.30629    0.36144    0.13939    1.000
    Si1836   Si       0.30029    0.35142    0.23583    1.000
    N1837    N        0.33245    0.32953    0.21502    1.000
    Si1838   Si       0.33302    0.29023    0.19877    1.000
    N1839    N        0.28898    0.28473    0.20292    1.000
    Si1840   Si       0.32267    0.41494    0.19259    1.000
    N1841    N        0.31350    0.39444    0.23118    1.000
    N1842    N        0.31127    0.45623    0.19916    1.000
    Si1843   Si       0.33105    0.48875    0.18375    1.000
    N1844    N        0.29161    0.39826    0.16596    1.000
    Si1845   Si       0.31871    0.29901    0.35394    1.000
    N1846    N        0.32405    0.28726    0.28065    1.000
    N1847    N        0.32183    0.33730    0.33424    1.000
    Si1848   Si       0.32041    0.32909    0.29174    1.000
    N1849    N        0.28905    0.27424    0.33485    1.000
    Si1850   Si       0.32976    0.38021    0.33908    1.000
    N1851    N        0.28305    0.34072    0.27363    1.000
    N1852    N        0.29639    0.45117    0.27092    1.000
    N1853    N        0.29972    0.39781    0.31133    1.000
    Si1854   Si       0.31607    0.41349    0.27267    1.000
    Si1855   Si       0.29217    0.50080    0.36173    1.000
    N1856    N        0.28711    0.45921    0.34753    1.000
    N1857    N        0.31986    0.31109    0.39757    1.000
    N1858    N        0.32845    0.36618    0.43882    1.000
    Si1859   Si       0.30765    0.37334    0.47602    1.000
    Si1860   Si       0.28647    0.28889    0.41776    1.000
    N1861    N        0.30009    0.47984    0.46862    1.000
    Si1862   Si       0.33469    0.50137    0.48015    1.000
    N1863    N        0.32052    0.39999    0.37609    1.000
    Si1864   Si       0.28650    0.42572    0.37649    1.000
    N1865    N        0.30513    0.49627    0.40291    1.000
    N1866    N        0.32103    0.40968    0.49507    1.000
    N1867    N        0.32162    0.31375    0.56575    1.000
    Si1868   Si       0.31935    0.33822    0.60080    1.000
    N1869    N        0.30505    0.34372    0.50818    1.000
    Si1870   Si       0.31193    0.26314    0.61972    1.000
    Si1871   Si       0.28369    0.29137    0.55706    1.000
    N1872    N        0.28530    0.36277    0.61224    1.000
    N1873    N        0.28330    0.26244    0.58728    1.000
    N1874    N        0.28459    0.45158    0.53805    1.000
    Si1875   Si       0.30509    0.41346    0.53484    1.000
    Si1876   Si       0.32805    0.43485    0.60341    1.000
    N1877    N        0.33597    0.41284    0.56606    1.000
    N1878    N        0.34040    0.47520    0.60167    1.000
    Si1879   Si       0.28109    0.30098    0.65595    1.000
    Si1880   Si       0.29983    0.31693    0.73141    1.000
    N1881    N        0.31922    0.30541    0.63081    1.000
    N1882    N        0.28657    0.32549    0.69106    1.000
    N1883    N        0.29003    0.35924    0.74254    1.000
    Si1884   Si       0.32681    0.41478    0.68227    1.000
    N1885    N        0.33899    0.41261    0.64046    1.000
    N1886    N        0.28917    0.39540    0.67426    1.000
    N1887    N        0.31443    0.45464    0.68920    1.000
    N1888    N        0.28691    0.49667    0.73230    1.000
    Si1889   Si       0.32562    0.30581    0.79685    1.000
    Si1890   Si       0.33069    0.36555    0.83663    1.000
    N1891    N        0.29535    0.35407    0.86201    1.000
    N1892    N        0.31612    0.26334    0.80208    1.000
    N1893    N        0.33750    0.30651    0.75613    1.000
    N1894    N        0.28783    0.32637    0.80164    1.000
    N1895    N        0.28413    0.28256    0.86389    1.000
    N1896    N        0.31718    0.38449    0.79704    1.000
    N1897    N        0.32344    0.49197    0.79411    1.000
    N1898    N        0.29940    0.43744    0.75358    1.000
    Si1899   Si       0.32928    0.39947    0.75602    1.000
    Si1900   Si       0.28924    0.49657    0.81979    1.000
    Si1901   Si       0.33204    0.46394    0.76298    1.000
    N1902    N        0.31669    0.50661    0.85368    1.000
    N1903    N        0.29543    0.31135    0.93240    1.000
    Si1904   Si       0.33962    0.31526    0.94146    1.000
    N1905    N        0.28713    0.36026    0.97829    1.000
    Si1906   Si       0.32022    0.38216    0.95949    1.000
    Si1907   Si       0.27871    0.27835    0.90808    1.000
    N1908    N        0.32817    0.42361    0.97996    1.000
    Si1909   Si       0.33727    0.47852    0.88241    1.000
    N1910    N        0.32291    0.48377    0.92805    1.000
    N1911    N        0.30761    0.39302    0.91933    1.000
    N1912    N        0.31444    0.44190    0.87596    1.000
    Si1913   Si       0.33938    0.41176    0.89669    1.000
    N1914    N        0.30759    0.57240    0.04434    1.000
    Si1915   Si       0.31888    0.54523    0.07685    1.000
    N1916    N        0.33410    0.56789    0.11094    1.000
    Si1917   Si       0.32510    0.61166    0.10506    1.000
    N1918    N        0.29036    0.51547    0.08581    1.000
    Si1919   Si       0.33839    0.60124    0.03287    1.000
    N1920    N        0.28577    0.62266    0.09049    1.000
    Si1921   Si       0.28529    0.55611    0.01064    1.000
    N1922    N        0.33479    0.63637    0.00785    1.000
    N1923    N        0.30586    0.74839    0.03801    1.000
    N1924    N        0.30129    0.68073    0.05052    1.000
    Si1925   Si       0.33977    0.66232    0.04292    1.000
    Si1926   Si       0.32449    0.54748    0.23305    1.000
    N1927    N        0.30525    0.56443    0.19852    1.000
    Si1928   Si       0.31948    0.55604    0.15538    1.000
    N1929    N        0.31001    0.51472    0.15555    1.000
    N1930    N        0.30466    0.62774    0.23796    1.000
    N1931    N        0.33632    0.68433    0.20018    1.000
    N1932    N        0.31171    0.73253    0.15323    1.000
    Si1933   Si       0.30345    0.70977    0.19162    1.000
    N1934    N        0.32308    0.64145    0.13843    1.000
    N1935    N        0.28611    0.73139    0.22468    1.000
    Si1936   Si       0.31580    0.55092    0.30741    1.000
    N1937    N        0.30545    0.53178    0.27025    1.000
    N1938    N        0.32460    0.52032    0.33750    1.000
    N1939    N        0.33108    0.60956    0.35990    1.000
    Si1940   Si       0.28891    0.59913    0.36051    1.000
    N1941    N        0.28386    0.57696    0.32308    1.000
    N1942    N        0.31376    0.64452    0.30454    1.000
    Si1943   Si       0.31041    0.74677    0.26248    1.000
    Si1944   Si       0.30502    0.66528    0.34103    1.000
    N1945    N        0.33883    0.68109    0.36101    1.000
    Si1946   Si       0.28821    0.58598    0.43302    1.000
    Si1947   Si       0.31752    0.57093    0.49191    1.000
    N1948    N        0.32793    0.60529    0.42823    1.000
    N1949    N        0.29395    0.55309    0.46027    1.000
    N1950    N        0.34217    0.60695    0.49222    1.000
    N1951    N        0.34219    0.74197    0.48112    1.000
    Si1952   Si       0.31963    0.71637    0.37281    1.000
    Si1953   Si       0.29603    0.69297    0.44376    1.000
    N1954    N        0.31838    0.71749    0.41641    1.000
    N1955    N        0.32602    0.67099    0.46744    1.000
    N1956    N        0.30760    0.59239    0.59972    1.000
    N1957    N        0.30662    0.52441    0.56009    1.000
    N1958    N        0.28516    0.57688    0.52055    1.000
    Si1959   Si       0.31706    0.51095    0.60032    1.000
    N1960    N        0.30507    0.63255    0.54622    1.000
    Si1961   Si       0.31897    0.71465    0.56872    1.000
    N1962    N        0.31461    0.70389    0.52680    1.000
    N1963    N        0.29359    0.68591    0.59158    1.000
    N1964    N        0.30612    0.75316    0.57793    1.000
    N1965    N        0.31644    0.58190    0.65967    1.000
    N1966    N        0.32762    0.52883    0.68741    1.000
    Si1967   Si       0.29292    0.54290    0.66316    1.000
    Si1968   Si       0.32299    0.52527    0.73390    1.000
    Si1969   Si       0.29206    0.60796    0.63794    1.000
    N1970    N        0.29022    0.62778    0.71984    1.000
    N1971    N        0.29113    0.55814    0.74167    1.000
    N1972    N        0.28257    0.52374    0.62517    1.000
    Si1973   Si       0.32151    0.63707    0.69406    1.000
    Si1974   Si       0.28904    0.71742    0.74045    1.000
    N1975    N        0.32502    0.71378    0.64149    1.000
    Si1976   Si       0.29140    0.68744    0.63635    1.000
    N1977    N        0.29303    0.72710    0.69841    1.000
    Si1978   Si       0.32717    0.74023    0.67692    1.000
    N1979    N        0.30028    0.64695    0.65514    1.000
    Si1980   Si       0.31655    0.60338    0.81828    1.000
    N1981    N        0.32529    0.60236    0.77629    1.000
    N1982    N        0.32872    0.57511    0.85006    1.000
    Si1983   Si       0.28801    0.59942    0.75271    1.000
    Si1984   Si       0.30803    0.54566    0.87290    1.000
    N1985    N        0.32938    0.64185    0.83396    1.000
    Si1986   Si       0.30347    0.66833    0.85367    1.000
    Si1987   Si       0.30564    0.73226    0.84555    1.000
    N1988    N        0.33046    0.72408    0.75104    1.000
    N1989    N        0.34005    0.74088    0.81916    1.000
    N1990    N        0.32351    0.54675    0.91480    1.000
    Si1991   Si       0.29045    0.62399    0.91844    1.000
    N1992    N        0.33021    0.61017    0.93557    1.000
    N1993    N        0.30938    0.54185    0.97793    1.000
    Si1994   Si       0.28620    0.55133    0.94167    1.000
    N1995    N        0.30854    0.74120    0.93656    1.000
    N1996    N        0.28554    0.70504    0.98656    1.000
    N1997    N        0.31944    0.70247    0.87608    1.000
    Si1998   Si       0.32195    0.71155    0.96453    1.000
    N1999    N        0.33930    0.67716    0.94351    1.000
    N2000    N        0.31627    0.79387    0.08695    1.000
    Si2001   Si       0.33551    0.76317    0.01043    1.000
    Si2002   Si       0.30051    0.91527    0.03334    1.000
    Si2003   Si       0.30605    0.99219    0.05824    1.000
    N2004    N        0.28676    0.95318    0.04899    1.000
    Si2005   Si       0.30714    0.80912    0.12781    1.000
    N2006    N        0.29721    0.85171    0.13661    1.000
    N2007    N        0.29809    0.82203    0.20819    1.000
    Si2008   Si       0.33300    0.79964    0.21508    1.000
    Si2009   Si       0.32849    0.87655    0.14787    1.000
    Si2010   Si       0.30791    0.91430    0.22203    1.000
    N2011    N        0.31899    0.90544    0.18071    1.000
    N2012    N        0.33331    0.90857    0.11755    1.000
    N2013    N        0.32674    0.97551    0.15390    1.000
    N2014    N        0.33684    0.94739    0.22782    1.000
    Si2015   Si       0.31562    0.98605    0.22970    1.000
    Si2016   Si       0.33926    0.93488    0.15469    1.000
    N2017    N        0.33233    0.78586    0.25849    1.000
    Si2018   Si       0.32521    0.78408    0.34886    1.000
    N2019    N        0.28325    0.77571    0.34320    1.000
    N2020    N        0.30783    0.89506    0.26398    1.000
    N2021    N        0.30095    0.92478    0.33458    1.000
    Si2022   Si       0.32395    0.90899    0.30171    1.000
    N2023    N        0.30395    0.98613    0.27183    1.000
    N2024    N        0.32910    0.82074    0.37158    1.000
    Si2025   Si       0.31913    0.82427    0.41609    1.000
    N2026    N        0.32082    0.78447    0.43585    1.000
    Si2027   Si       0.30202    0.76234    0.47416    1.000
    N2028    N        0.32060    0.95167    0.46453    1.000
    N2029    N        0.33896    0.95253    0.39652    1.000
    Si2030   Si       0.30620    0.95843    0.42587    1.000
    N2031    N        0.29353    0.00012    0.42693    1.000
    N2032    N        0.33392    0.88463    0.38267    1.000
    Si2033   Si       0.31315    0.92155    0.37677    1.000
    Si2034   Si       0.29650    0.94896    0.50099    1.000
    N2035    N        0.30520    0.78787    0.51219    1.000
    N2036    N        0.30274    0.86155    0.55819    1.000
    N2037    N        0.30449    0.81060    0.61175    1.000
    Si2038   Si       0.33425    0.78302    0.59451    1.000
    Si2039   Si       0.29389    0.86318    0.51584    1.000
    N2040    N        0.33258    0.85093    0.50160    1.000
    Si2041   Si       0.33901    0.81194    0.52219    1.000
    Si2042   Si       0.31729    0.89747    0.57593    1.000
    Si2043   Si       0.30898    0.96503    0.56950    1.000
    N2044    N        0.31986    0.97068    0.52906    1.000
    N2045    N        0.28751    0.92773    0.57395    1.000
    N2046    N        0.34365    0.97582    0.59572    1.000
    N2047    N        0.33224    0.89273    0.61662    1.000
    N2048    N        0.28471    0.90574    0.50888    1.000
    Si2049   Si       0.29446    0.80663    0.65415    1.000
    N2050    N        0.32343    0.84886    0.67258    1.000
    N2051    N        0.32715    0.78431    0.67195    1.000
    N2052    N        0.29254    0.84641    0.73570    1.000
    Si2053   Si       0.28667    0.86252    0.69673    1.000
    N2054    N        0.28705    0.99622    0.64378    1.000
    Si2055   Si       0.33901    0.88743    0.65842    1.000
    Si2056   Si       0.30791    0.00173    0.74559    1.000
    Si2057   Si       0.31859    0.93549    0.72206    1.000
    Si2058   Si       0.30635    0.99007    0.68160    1.000
    N2059    N        0.28777    0.95697    0.70255    1.000
    Si2060   Si       0.32735    0.00452    0.62429    1.000
    N2061    N        0.33908    0.97077    0.73876    1.000
    N2062    N        0.31287    0.79128    0.77497    1.000
    Si2063   Si       0.32643    0.82725    0.75426    1.000
    N2064    N        0.33743    0.85620    0.78346    1.000
    Si2065   Si       0.30832    0.89031    0.78962    1.000
    Si2066   Si       0.30177    0.94460    0.84430    1.000
    N2067    N        0.32186    0.91003    0.82546    1.000
    N2068    N        0.30041    0.92104    0.75934    1.000
    N2069    N        0.34035    0.95268    0.86785    1.000
    N2070    N        0.28751    0.98599    0.83318    1.000
    Si2071   Si       0.32236    0.00650    0.81194    1.000
    N2072    N        0.32295    0.76747    0.87259    1.000
    N2073    N        0.32048    0.79450    0.98441    1.000
    Si2074   Si       0.30403    0.87455    0.96692    1.000
    N2075    N        0.33827    0.85447    0.94990    1.000
    Si2076   Si       0.33904    0.75817    0.91143    1.000
    Si2077   Si       0.30889    0.91406    0.90503    1.000
    N2078    N        0.30741    0.91136    0.99143    1.000
    Si2079   Si       0.32732    0.94642    0.97397    1.000
    N2080    N        0.33075    0.94043    0.93187    1.000
    N2081    N        0.31427    0.98796    0.97464    1.000
    Si2082   Si       0.36865    0.06016    0.10493    1.000
    N2083    N        0.38496    0.10132    0.10806    1.000
    N2084    N        0.36042    0.03924    0.01317    1.000
    N2085    N        0.39347    0.03189    0.08315    1.000
    Si2086   Si       0.37379    0.07899    0.00417    1.000
    Si2087   Si       0.38089    0.01543    0.04435    1.000
    Si2088   Si       0.35865    0.13730    0.10918    1.000
    N2089    N        0.39155    0.16952    0.10767    1.000
    N2090    N        0.39594    0.18314    0.03878    1.000
    Si2091   Si       0.39631    0.17278    0.99796    1.000
    Si2092   Si       0.37558    0.02254    0.22313    1.000
    N2093    N        0.36906    0.12272    0.21848    1.000
    N2094    N        0.34967    0.04260    0.13837    1.000
    Si2095   Si       0.34785    0.01123    0.16835    1.000
    N2096    N        0.34470    0.13282    0.15029    1.000
    Si2097   Si       0.35837    0.25556    0.12611    1.000
    Si2098   Si       0.36477    0.14902    0.18517    1.000
    N2099    N        0.36921    0.22270    0.15114    1.000
    N2100    N        0.34247    0.18159    0.20250    1.000
    N2101    N        0.34539    0.25089    0.21697    1.000
    Si2102   Si       0.34296    0.22167    0.18594    1.000
    Si2103   Si       0.36863    0.09020    0.35967    1.000
    Si2104   Si       0.38587    0.01841    0.34369    1.000
    N2105    N        0.39321    0.06207    0.33840    1.000
    N2106    N        0.39579    0.10169    0.28023    1.000
    N2107    N        0.38566    0.12872    0.34227    1.000
    N2108    N        0.34699    0.01150    0.32655    1.000
    Si2109   Si       0.37221    0.13311    0.30069    1.000
    Si2110   Si       0.35262    0.19293    0.30522    1.000
    N2111    N        0.35961    0.20102    0.34730    1.000
    Si2112   Si       0.37747    0.23759    0.36312    1.000
    N2113    N        0.38922    0.17359    0.29404    1.000
    N2114    N        0.39408    0.24402    0.27010    1.000
    Si2115   Si       0.36252    0.16012    0.36519    1.000
    N2116    N        0.37398    0.09988    0.40258    1.000
    N2117    N        0.37280    0.08531    0.47602    1.000
    Si2118   Si       0.38371    0.04338    0.48085    1.000
    Si2119   Si       0.34838    0.09235    0.43849    1.000
    Si2120   Si       0.39103    0.12134    0.48963    1.000
    N2121    N        0.35587    0.01119    0.48719    1.000
    N2122    N        0.34151    0.19743    0.45245    1.000
    N2123    N        0.38635    0.16698    0.40206    1.000
    N2124    N        0.38002    0.23836    0.40685    1.000
    Si2125   Si       0.37780    0.19931    0.43025    1.000
    Si2126   Si       0.35437    0.06227    0.58147    1.000
    N2127    N        0.39770    0.06153    0.58064    1.000
    N2128    N        0.34071    0.04545    0.61903    1.000
    Si2129   Si       0.35757    0.18855    0.53241    1.000
    N2130    N        0.39142    0.21713    0.53509    1.000
    N2131    N        0.34740    0.24007    0.61351    1.000
    N2132    N        0.36352    0.15411    0.50205    1.000
    N2133    N        0.34010    0.17456    0.57039    1.000
    N2134    N        0.38246    0.09846    0.64126    1.000
    N2135    N        0.36938    0.05490    0.69050    1.000
    Si2136   Si       0.35361    0.07021    0.65150    1.000
    Si2137   Si       0.35456    0.12587    0.73037    1.000
    Si2138   Si       0.34715    0.23669    0.69607    1.000
    N2139    N        0.35487    0.14227    0.69051    1.000
    Si2140   Si       0.36360    0.14003    0.64725    1.000
    N2141    N        0.34532    0.24300    0.73903    1.000
    N2142    N        0.37265    0.17927    0.63242    1.000
    N2143    N        0.38701    0.22176    0.69105    1.000
    N2144    N        0.36273    0.07853    0.79767    1.000
    N2145    N        0.39034    0.12591    0.75336    1.000
    Si2146   Si       0.39870    0.08741    0.77433    1.000
    Si2147   Si       0.34706    0.07078    0.83692    1.000
    N2148    N        0.37565    0.06301    0.86630    1.000
    Si2149   Si       0.37370    0.18661    0.83231    1.000
    Si2150   Si       0.36879    0.22232    0.76870    1.000
    N2151    N        0.39228    0.24897    0.79471    1.000
    N2152    N        0.34713    0.19727    0.79743    1.000
    Si2153   Si       0.38377    0.25229    0.83931    1.000
    N2154    N        0.34489    0.24855    0.86176    1.000
    N2155    N        0.34683    0.17115    0.86284    1.000
    Si2156   Si       0.35906    0.13230    0.87248    1.000
    Si2157   Si       0.36996    0.02993    0.89228    1.000
    N2158    N        0.38275    0.09108    0.96165    1.000
    N2159    N        0.34412    0.12331    0.91336    1.000
    Si2160   Si       0.37089    0.13038    0.94547    1.000
    Si2161   Si       0.34848    0.25501    0.90337    1.000
    N2162    N        0.36203    0.15315    0.98115    1.000
    N2163    N        0.36332    0.22040    0.92732    1.000
    Si2164   Si       0.37770    0.36956    0.04718    1.000
    N2165    N        0.37794    0.32795    0.03628    1.000
    Si2166   Si       0.35438    0.30259    0.06250    1.000
    N2167    N        0.37329    0.28149    0.09716    1.000
    Si2168   Si       0.38379    0.30788    0.99762    1.000
    N2169    N        0.36128    0.45484    0.03528    1.000
    Si2170   Si       0.35235    0.41654    0.01760    1.000
    N2171    N        0.39144    0.39551    0.01503    1.000
    Si2172   Si       0.39657    0.47103    0.05567    1.000
    N2173    N        0.39868    0.38329    0.08370    1.000
    N2174    N        0.39735    0.46252    0.10015    1.000
    N2175    N        0.40402    0.50627    0.03055    1.000
    N2176    N        0.37678    0.29759    0.24483    1.000
    Si2177   Si       0.38121    0.37637    0.17176    1.000
    N2178    N        0.39461    0.35562    0.20707    1.000
    N2179    N        0.34814    0.28895    0.15585    1.000
    Si2180   Si       0.36175    0.32156    0.12555    1.000
    N2181    N        0.34929    0.35829    0.14990    1.000
    Si2182   Si       0.36960    0.33810    0.23646    1.000
    N2183    N        0.37461    0.48437    0.17036    1.000
    Si2184   Si       0.39683    0.44572    0.18499    1.000
    N2185    N        0.36430    0.41530    0.18328    1.000
    N2186    N        0.35416    0.35427    0.27436    1.000
    N2187    N        0.35107    0.27041    0.36149    1.000
    Si2188   Si       0.35472    0.26242    0.25991    1.000
    N2189    N        0.37261    0.38547    0.33179    1.000
    Si2190   Si       0.38589    0.38681    0.28876    1.000
    N2191    N        0.35755    0.42394    0.27702    1.000
    Si2192   Si       0.38832    0.45446    0.28441    1.000
    N2193    N        0.39281    0.48074    0.31896    1.000
    Si2194   Si       0.39624    0.46825    0.36185    1.000
    Si2195   Si       0.39625    0.38734    0.36573    1.000
    N2196    N        0.36696    0.30095    0.43619    1.000
    N2197    N        0.37977    0.36691    0.40130    1.000
    Si2198   Si       0.38824    0.30330    0.47438    1.000
    Si2199   Si       0.34972    0.27309    0.40593    1.000
    Si2200   Si       0.35070    0.33649    0.41583    1.000
    N2201    N        0.40178    0.34436    0.47204    1.000
    Si2202   Si       0.34601    0.39653    0.41175    1.000
    Si2203   Si       0.39937    0.43621    0.42385    1.000
    N2204    N        0.36060    0.42616    0.43837    1.000
    Si2205   Si       0.35828    0.42911    0.48415    1.000
    N2206    N        0.39238    0.42906    0.38038    1.000
    Si2207   Si       0.39318    0.49661    0.46574    1.000
    N2208    N        0.37017    0.49625    0.38100    1.000
    N2209    N        0.36603    0.47198    0.49434    1.000
    N2210    N        0.36944    0.35640    0.53314    1.000
    N2211    N        0.35750    0.35865    0.60126    1.000
    N2212    N        0.38893    0.27293    0.56493    1.000
    N2213    N        0.35977    0.29126    0.50787    1.000
    Si2214   Si       0.38376    0.26281    0.60849    1.000
    Si2215   Si       0.36559    0.25310    0.53270    1.000
    Si2216   Si       0.34056    0.32480    0.52834    1.000
    Si2217   Si       0.36823    0.38388    0.56838    1.000
    N2218    N        0.39370    0.41064    0.49927    1.000
    Si2219   Si       0.39636    0.48552    0.52606    1.000
    Si2220   Si       0.38202    0.50588    0.60156    1.000
    N2221    N        0.35825    0.35026    0.66779    1.000
    Si2222   Si       0.37669    0.36372    0.70465    1.000
    Si2223   Si       0.35491    0.30950    0.65810    1.000
    N2224    N        0.35045    0.28058    0.68941    1.000
    Si2225   Si       0.36803    0.28735    0.72968    1.000
    N2226    N        0.39120    0.32435    0.71573    1.000
    N2227    N        0.38714    0.29891    0.63117    1.000
    Si2228   Si       0.36769    0.37907    0.63779    1.000
    N2229    N        0.35024    0.48863    0.73177    1.000
    N2230    N        0.37454    0.48728    0.66376    1.000
    N2231    N        0.34607    0.39266    0.71648    1.000
    Si2232   Si       0.34141    0.48759    0.68877    1.000
    N2233    N        0.35078    0.33124    0.82313    1.000
    Si2234   Si       0.39270    0.32400    0.82396    1.000
    N2235    N        0.35468    0.38886    0.86472    1.000
    N2236    N        0.35997    0.43095    0.77029    1.000
    N2237    N        0.37255    0.47490    0.85683    1.000
    N2238    N        0.38921    0.49125    0.78792    1.000
    Si2239   Si       0.35382    0.49828    0.82501    1.000
    Si2240   Si       0.39935    0.44888    0.78257    1.000
    Si2241   Si       0.38440    0.51147    0.74818    1.000
    Si2242   Si       0.39575    0.38315    0.86966    1.000
    N2243    N        0.34707    0.29554    0.97804    1.000
    N2244    N        0.35302    0.35556    0.95075    1.000
    N2245    N        0.36621    0.29408    0.91182    1.000
    Si2246   Si       0.39743    0.35933    0.94532    1.000
    Si2247   Si       0.39948    0.49095    0.98907    1.000
    N2248    N        0.35706    0.49078    0.98067    1.000
    N2249    N        0.36842    0.43256    0.92412    1.000
    Si2250   Si       0.34546    0.45603    0.95452    1.000
    N2251    N        0.37064    0.57823    0.01860    1.000
    Si2252   Si       0.38232    0.54231    0.04158    1.000
    Si2253   Si       0.38948    0.60804    0.07859    1.000
    N2254    N        0.39237    0.56434    0.07790    1.000
    N2255    N        0.35096    0.62471    0.06922    1.000
    N2256    N        0.34749    0.51967    0.05160    1.000
    Si2257   Si       0.37876    0.55883    0.11889    1.000
    N2258    N        0.37848    0.68189    0.04136    1.000
    Si2259   Si       0.38514    0.70988    0.00725    1.000
    N2260    N        0.39258    0.60380    0.12604    1.000
    Si2261   Si       0.38828    0.59710    0.16880    1.000
    N2262    N        0.36605    0.55868    0.16502    1.000
    N2263    N        0.36346    0.62368    0.19032    1.000
    Si2264   Si       0.37992    0.52530    0.19004    1.000
    Si2265   Si       0.34635    0.61648    0.22907    1.000
    N2266    N        0.34798    0.51353    0.21466    1.000
    N2267    N        0.35548    0.57596    0.24199    1.000
    Si2268   Si       0.36046    0.68771    0.23665    1.000
    Si2269   Si       0.35113    0.65741    0.16627    1.000
    N2270    N        0.39519    0.70848    0.22255    1.000
    Si2271   Si       0.37492    0.74591    0.23450    1.000
    N2272    N        0.38944    0.67543    0.15786    1.000
    N2273    N        0.38245    0.74663    0.13843    1.000
    Si2274   Si       0.38240    0.57167    0.27480    1.000
    N2275    N        0.34966    0.57740    0.30511    1.000
    Si2276   Si       0.36240    0.53234    0.35637    1.000
    Si2277   Si       0.34576    0.61706    0.32069    1.000
    N2278    N        0.37886    0.64284    0.32045    1.000
    Si2279   Si       0.37930    0.67782    0.34655    1.000
    N2280    N        0.39380    0.71452    0.32743    1.000
    N2281    N        0.36765    0.64833    0.25400    1.000
    Si2282   Si       0.38654    0.75521    0.33930    1.000
    N2283    N        0.34581    0.72099    0.25971    1.000
    Si2284   Si       0.39886    0.64343    0.28233    1.000
    N2285    N        0.35901    0.51564    0.44848    1.000
    N2286    N        0.34532    0.55520    0.39138    1.000
    Si2287   Si       0.35326    0.59647    0.39444    1.000
    N2288    N        0.39589    0.60099    0.39453    1.000
    Si2289   Si       0.34368    0.51561    0.40962    1.000
    Si2290   Si       0.34576    0.63408    0.45804    1.000
    N2291    N        0.38384    0.75550    0.43356    1.000
    N2292    N        0.38214    0.64689    0.43846    1.000
    Si2293   Si       0.34470    0.75435    0.41558    1.000
    N2294    N        0.34707    0.75108    0.36987    1.000
    Si2295   Si       0.34529    0.70112    0.49717    1.000
    N2296    N        0.35794    0.57966    0.55721    1.000
    N2297    N        0.38736    0.59678    0.61172    1.000
    N2298    N        0.34851    0.53949    0.61105    1.000
    Si2299   Si       0.34824    0.58073    0.60014    1.000
    Si2300   Si       0.34837    0.53832    0.54840    1.000
    Si2301   Si       0.34470    0.61819    0.53409    1.000
    N2302    N        0.37504    0.50791    0.55773    1.000
    N2303    N        0.33952    0.53739    0.50603    1.000
    N2304    N        0.37710    0.64002    0.55365    1.000
    N2305    N        0.38804    0.69559    0.51342    1.000
    N2306    N        0.36167    0.70783    0.57712    1.000
    Si2307   Si       0.38974    0.68182    0.55609    1.000
    Si2308   Si       0.36322    0.71802    0.62013    1.000
    Si2309   Si       0.34995    0.56720    0.68306    1.000
    N2310    N        0.35169    0.60375    0.70796    1.000
    N2311    N        0.39283    0.56186    0.67161    1.000
    N2312    N        0.35278    0.66603    0.71084    1.000
    Si2313   Si       0.38252    0.63423    0.71381    1.000
    N2314    N        0.36690    0.73331    0.69458    1.000
    Si2315   Si       0.36187    0.70391    0.73011    1.000
    N2316    N        0.38979    0.68829    0.63571    1.000
    Si2317   Si       0.37236    0.57276    0.84914    1.000
    N2318    N        0.37820    0.53662    0.82862    1.000
    N2319    N        0.38655    0.60622    0.82483    1.000
    N2320    N        0.39002    0.61835    0.75251    1.000
    Si2321   Si       0.35624    0.59111    0.74934    1.000
    N2322    N        0.35944    0.54800    0.74704    1.000
    Si2323   Si       0.37399    0.64491    0.84095    1.000
    N2324    N        0.39522    0.70750    0.75464    1.000
    N2325    N        0.39649    0.66357    0.80732    1.000
    Si2326   Si       0.33985    0.75709    0.77799    1.000
    Si2327   Si       0.34126    0.52349    0.95289    1.000
    Si2328   Si       0.35424    0.57796    0.91991    1.000
    Si2329   Si       0.39007    0.58495    0.98251    1.000
    N2330    N        0.37482    0.55679    0.95119    1.000
    N2331    N        0.38530    0.58152    0.88987    1.000
    N2332    N        0.38661    0.62467    0.96871    1.000
    N2333    N        0.36886    0.72719    0.91062    1.000
    N2334    N        0.35061    0.72840    0.99263    1.000
    N2335    N        0.37979    0.66434    0.87942    1.000
    Si2336   Si       0.34477    0.63955    0.96473    1.000
    Si2337   Si       0.35032    0.68984    0.90318    1.000
    N2338    N        0.36216    0.78667    0.03480    1.000
    Si2339   Si       0.35636    0.80547    0.07215    1.000
    N2340    N        0.39302    0.78791    0.08728    1.000
    N2341    N        0.34861    0.84793    0.07340    1.000
    Si2342   Si       0.36426    0.94648    0.03674    1.000
    Si2343   Si       0.35348    0.88862    0.08199    1.000
    N2344    N        0.39443    0.89236    0.09557    1.000
    N2345    N        0.34826    0.98550    0.04979    1.000
    N2346    N        0.34091    0.91271    0.04967    1.000
    Si2347   Si       0.37474    0.82545    0.16742    1.000
    Si2348   Si       0.39759    0.85158    0.23343    1.000
    N2349    N        0.37000    0.86561    0.15303    1.000
    N2350    N        0.36639    0.83002    0.21070    1.000
    N2351    N        0.35245    0.76138    0.20223    1.000
    N2352    N        0.34177    0.80097    0.15263    1.000
    Si2353   Si       0.34691    0.75787    0.16020    1.000
    N2354    N        0.38462    0.93456    0.15625    1.000
    Si2355   Si       0.39767    0.89677    0.13867    1.000
    N2356    N        0.38545    0.99895    0.18830    1.000
    Si2357   Si       0.36762    0.79843    0.27902    1.000
    N2358    N        0.35785    0.78547    0.31941    1.000
    N2359    N        0.39379    0.83451    0.27469    1.000
    Si2360   Si       0.38561    0.87362    0.29143    1.000
    N2361    N        0.34880    0.87401    0.31465    1.000
    Si2362   Si       0.35184    0.85470    0.35485    1.000
    N2363    N        0.39715    0.77256    0.25961    1.000
    N2364    N        0.35357    0.94179    0.29484    1.000
    N2365    N        0.39080    0.94087    0.35851    1.000
    Si2366   Si       0.37089    0.93265    0.25278    1.000
    Si2367   Si       0.39387    0.94099    0.31370    1.000
    N2368    N        0.36963    0.00378    0.26186    1.000
    N2369    N        0.38159    0.88944    0.24950    1.000
    Si2370   Si       0.34272    0.98535    0.29084    1.000
    N2371    N        0.39091    0.85813    0.37378    1.000
    N2372    N        0.35266    0.84587    0.43425    1.000
    Si2373   Si       0.36639    0.84537    0.47410    1.000
    Si2374   Si       0.37602    0.76741    0.47353    1.000
    Si2375   Si       0.36884    0.87609    0.40713    1.000
    N2376    N        0.36860    0.80479    0.49117    1.000
    N2377    N        0.39801    0.87138    0.48425    1.000
    N2378    N        0.38359    0.93936    0.49082    1.000
    N2379    N        0.37994    0.97925    0.43567    1.000
    Si2380   Si       0.38288    0.94765    0.40354    1.000
    Si2381   Si       0.35954    0.96964    0.47111    1.000
    N2382    N        0.38385    0.91042    0.42722    1.000
    N2383    N        0.35544    0.80703    0.56263    1.000
    Si2384   Si       0.39521    0.82561    0.57548    1.000
    N2385    N        0.39138    0.86213    0.59871    1.000
    N2386    N        0.36441    0.76230    0.61716    1.000
    Si2387   Si       0.38561    0.93275    0.53494    1.000
    Si2388   Si       0.38650    0.97118    0.59244    1.000
    Si2389   Si       0.37373    0.90114    0.60460    1.000
    N2390    N        0.35622    0.91501    0.56286    1.000
    N2391    N        0.39283    0.97364    0.55039    1.000
    N2392    N        0.40174    0.00092    0.62413    1.000
    N2393    N        0.38457    0.82184    0.65720    1.000
    Si2394   Si       0.35201    0.81691    0.68509    1.000
    N2395    N        0.35958    0.82088    0.72761    1.000
    Si2396   Si       0.39617    0.78690    0.63514    1.000
    N2397    N        0.38268    0.89107    0.65278    1.000
    N2398    N        0.34559    0.98998    0.66348    1.000
    Si2399   Si       0.38960    0.98758    0.66517    1.000
    Si2400   Si       0.38525    0.90986    0.69056    1.000
    N2401    N        0.34069    0.90846    0.69758    1.000
    Si2402   Si       0.36825    0.84288    0.81019    1.000
    N2403    N        0.38036    0.87154    0.83985    1.000
    Si2404   Si       0.35903    0.76870    0.84568    1.000
    N2405    N        0.37870    0.77192    0.76765    1.000
    N2406    N        0.36207    0.80599    0.82761    1.000
    Si2407   Si       0.39766    0.80918    0.74887    1.000
    N2408    N        0.39707    0.75779    0.86108    1.000
    Si2409   Si       0.37013    0.96540    0.76813    1.000
    Si2410   Si       0.37214    0.96719    0.84317    1.000
    N2411    N        0.37640    0.92220    0.76756    1.000
    N2412    N        0.35722    0.98160    0.80689    1.000
    Si2413   Si       0.35743    0.90597    0.85174    1.000
    N2414    N        0.39648    0.93407    0.84336    1.000
    Si2415   Si       0.39813    0.88425    0.76724    1.000
    N2416    N        0.35842    0.79424    0.92289    1.000
    Si2417   Si       0.36466    0.87519    0.92303    1.000
    Si2418   Si       0.35003    0.81505    0.95995    1.000
    N2419    N        0.39354    0.82376    0.96686    1.000
    Si2420   Si       0.40161    0.80874    0.92604    1.000
    N2421    N        0.34360    0.89083    0.89021    1.000
    N2422    N        0.39503    0.96470    0.92984    1.000
    N2423    N        0.39284    0.89897    0.94425    1.000
    N2424    N        0.36604    0.94716    0.99297    1.000
    N2425    N        0.38660    0.99359    0.87510    1.000
    Si2426   Si       0.39771    0.93695    0.96309    1.000
    Si2427   Si       0.35640    0.96841    0.90738    1.000
    Si2428   Si       0.43244    0.04412    0.01892    1.000
    N2429    N        0.43476    0.12554    0.06949    1.000
    Si2430   Si       0.42680    0.10457    0.10831    1.000
    Si2431   Si       0.43870    0.11318    0.02807    1.000
    Si2432   Si       0.42974    0.02383    0.10731    1.000
    N2433    N        0.41019    0.08029    0.02661    1.000
    Si2434   Si       0.41735    0.17203    0.07275    1.000
    N2435    N        0.43042    0.14407    0.99903    1.000
    N2436    N        0.45904    0.18244    0.06482    1.000
    N2437    N        0.44137    0.06469    0.12225    1.000
    N2438    N        0.40105    0.05735    0.22475    1.000
    N2439    N        0.43666    0.11593    0.22053    1.000
    Si2440   Si       0.43911    0.04182    0.24376    1.000
    N2441    N        0.45405    0.13337    0.12591    1.000
    Si2442   Si       0.39932    0.10041    0.23590    1.000
    N2443    N        0.43710    0.21593    0.14625    1.000
    Si2444   Si       0.40147    0.19397    0.14502    1.000
    Si2445   Si       0.43380    0.15679    0.20647    1.000
    N2446    N        0.40395    0.16564    0.17612    1.000
    N2447    N        0.43507    0.17817    0.24322    1.000
    N2448    N        0.44274    0.25308    0.22357    1.000
    Si2449   Si       0.45363    0.21679    0.24398    1.000
    Si2450   Si       0.41850    0.07325    0.30352    1.000
    N2451    N        0.42696    0.03718    0.28454    1.000
    N2452    N        0.45233    0.09525    0.31788    1.000
    Si2453   Si       0.43080    0.12567    0.34123    1.000
    N2454    N        0.41559    0.23906    0.34359    1.000
    Si2455   Si       0.43159    0.17895    0.28808    1.000
    Si2456   Si       0.42195    0.24764    0.30252    1.000
    N2457    N        0.44962    0.15994    0.32411    1.000
    N2458    N        0.45345    0.21777    0.28875    1.000
    Si2459   Si       0.45266    0.24440    0.36762    1.000
    N2460    N        0.41406    0.03274    0.45202    1.000
    N2461    N        0.44051    0.12445    0.38405    1.000
    Si2462   Si       0.45144    0.02460    0.47388    1.000
    Si2463   Si       0.40569    0.12837    0.41010    1.000
    N2464    N        0.41753    0.12668    0.45369    1.000
    N2465    N        0.40724    0.01007    0.37994    1.000
    Si2466   Si       0.44959    0.19950    0.47323    1.000
    N2467    N        0.41333    0.21079    0.45297    1.000
    Si2468   Si       0.41734    0.25188    0.43282    1.000
    Si2469   Si       0.41747    0.07432    0.54355    1.000
    Si2470   Si       0.42439    0.03377    0.60420    1.000
    N2471    N        0.40974    0.11442    0.52726    1.000
    N2472    N        0.40999    0.03984    0.51613    1.000
    N2473    N        0.44480    0.01414    0.57133    1.000
    N2474    N        0.45812    0.08322    0.55373    1.000
    Si2475   Si       0.45331    0.24464    0.60737    1.000
    Si2476   Si       0.43506    0.21917    0.53773    1.000
    Si2477   Si       0.44235    0.14418    0.53006    1.000
    N2478    N        0.44268    0.18295    0.51281    1.000
    N2479    N        0.45873    0.21422    0.57646    1.000
    N2480    N        0.44744    0.12158    0.62854    1.000
    Si2481   Si       0.42627    0.09019    0.64732    1.000
    N2482    N        0.43373    0.08579    0.68953    1.000
    N2483    N        0.44963    0.05623    0.63291    1.000
    Si2484   Si       0.41094    0.05124    0.70511    1.000
    N2485    N        0.41896    0.01005    0.69113    1.000
    Si2486   Si       0.40086    0.20580    0.65081    1.000
    Si2487   Si       0.41987    0.22334    0.72155    1.000
    N2488    N        0.41356    0.23560    0.62403    1.000
    N2489    N        0.43504    0.18236    0.66269    1.000
    N2490    N        0.42661    0.09666    0.80555    1.000
    N2491    N        0.43504    0.02281    0.80929    1.000
    Si2492   Si       0.42815    0.02022    0.76845    1.000
    Si2493   Si       0.45112    0.06306    0.82073    1.000
    N2494    N        0.44880    0.06957    0.86258    1.000
    N2495    N        0.40924    0.05359    0.74838    1.000
    Si2496   Si       0.42913    0.13342    0.83298    1.000
    N2497    N        0.40158    0.12347    0.86510    1.000
    Si2498   Si       0.41264    0.16139    0.76714    1.000
    N2499    N        0.45520    0.15428    0.75884    1.000
    N2500    N        0.40443    0.16246    0.80951    1.000
    N2501    N        0.40205    0.19833    0.75135    1.000
    N2502    N        0.40085    0.21396    0.84988    1.000
    Si2503   Si       0.41044    0.08259    0.87814    1.000
    Si2504   Si       0.41582    0.06836    0.94474    1.000
    N2505    N        0.43155    0.09763    0.91643    1.000
    N2506    N        0.44368    0.05191    0.97613    1.000
    N2507    N        0.40682    0.03559    0.91800    1.000
    N2508    N        0.43104    0.21887    0.91026    1.000
    Si2509   Si       0.43762    0.20278    0.87057    1.000
    N2510    N        0.45176    0.16017    0.87574    1.000
    Si2511   Si       0.43549    0.13960    0.90995    1.000
    N2512    N        0.41335    0.20766    0.97651    1.000
    Si2513   Si       0.45000    0.25358    0.92484    1.000
    Si2514   Si       0.43194    0.24215    0.99499    1.000
    N2515    N        0.39952    0.15753    0.92649    1.000
    Si2516   Si       0.40088    0.20020    0.93406    1.000
    Si2517   Si       0.42874    0.36493    0.11300    1.000
    N2518    N        0.45493    0.33121    0.09695    1.000
    N2519    N        0.46465    0.30987    0.01563    1.000
    N2520    N        0.40298    0.27066    0.01048    1.000
    Si2521   Si       0.42649    0.42090    0.01436    1.000
    Si2522   Si       0.42006    0.42074    0.09009    1.000
    N2523    N        0.42778    0.44068    0.05229    1.000
    N2524    N        0.45636    0.40089    0.10271    1.000
    N2525    N        0.40327    0.32898    0.12829    1.000
    Si2526   Si       0.44094    0.30289    0.12865    1.000
    N2527    N        0.44741    0.30726    0.17200    1.000
    Si2528   Si       0.43405    0.33772    0.20332    1.000
    N2529    N        0.44146    0.31581    0.23885    1.000
    Si2530   Si       0.40264    0.48653    0.13546    1.000
    N2531    N        0.42003    0.38693    0.15248    1.000
    N2532    N        0.42529    0.42394    0.21250    1.000
    Si2533   Si       0.44944    0.40175    0.18182    1.000
    N2534    N        0.43102    0.46066    0.15890    1.000
    N2535    N        0.43316    0.28757    0.29327    1.000
    Si2536   Si       0.44844    0.32679    0.27998    1.000
    N2537    N        0.42217    0.35953    0.28965    1.000
    Si2538   Si       0.41514    0.28088    0.25087    1.000
    N2539    N        0.43733    0.38189    0.35236    1.000
    N2540    N        0.41872    0.42166    0.28639    1.000
    Si2541   Si       0.44825    0.39724    0.31312    1.000
    N2542    N        0.41262    0.47336    0.25167    1.000
    Si2543   Si       0.43896    0.43773    0.25126    1.000
    N2544    N        0.44643    0.26742    0.40288    1.000
    N2545    N        0.44567    0.34350    0.41394    1.000
    N2546    N        0.42005    0.27636    0.46688    1.000
    Si2547   Si       0.41465    0.36376    0.43442    1.000
    Si2548   Si       0.45748    0.27331    0.49039    1.000
    N2549    N        0.43626    0.47715    0.37597    1.000
    Si2550   Si       0.43867    0.49895    0.41293    1.000
    N2551    N        0.41343    0.47416    0.43648    1.000
    Si2552   Si       0.43316    0.41362    0.48209    1.000
    N2553    N        0.42541    0.40445    0.43947    1.000
    N2554    N        0.43255    0.32976    0.53696    1.000
    Si2555   Si       0.42767    0.29202    0.55563    1.000
    N2556    N        0.44485    0.28413    0.59551    1.000
    N2557    N        0.44840    0.34679    0.61250    1.000
    Si2558   Si       0.41011    0.36056    0.51168    1.000
    N2559    N        0.44416    0.26288    0.52846    1.000
    N2560    N        0.45175    0.37898    0.50303    1.000
    Si2561   Si       0.43588    0.38765    0.60883    1.000
    N2562    N        0.42915    0.46237    0.54174    1.000
    Si2563   Si       0.42513    0.44226    0.58087    1.000
    N2564    N        0.41032    0.47029    0.61003    1.000
    N2565    N        0.40812    0.40123    0.57600    1.000
    Si2566   Si       0.42980    0.31002    0.62835    1.000
    Si2567   Si       0.43000    0.30251    0.71002    1.000
    N2568    N        0.44505    0.29689    0.66746    1.000
    N2569    N        0.41411    0.26702    0.73458    1.000
    N2570    N        0.45986    0.32040    0.73431    1.000
    N2571    N        0.41557    0.50734    0.71811    1.000
    Si2572   Si       0.43766    0.40515    0.73686    1.000
    Si2573   Si       0.41643    0.47894    0.65274    1.000
    Si2574   Si       0.44092    0.47215    0.71625    1.000
    N2575    N        0.41193    0.38878    0.70731    1.000
    N2576    N        0.43311    0.44964    0.67965    1.000
    Si2577   Si       0.43157    0.40713    0.67206    1.000
    N2578    N        0.40625    0.39399    0.64058    1.000
    N2579    N        0.42555    0.44435    0.74717    1.000
    Si2580   Si       0.44251    0.33718    0.76928    1.000
    Si2581   Si       0.42508    0.26926    0.77726    1.000
    N2582    N        0.41052    0.31242    0.78636    1.000
    N2583    N        0.41215    0.36205    0.83517    1.000
    N2584    N        0.43088    0.37867    0.77141    1.000
    N2585    N        0.39930    0.29218    0.85170    1.000
    Si2586   Si       0.43559    0.38989    0.81188    1.000
    N2587    N        0.42270    0.43385    0.81517    1.000
    N2588    N        0.43553    0.49542    0.83845    1.000
    Si2589   Si       0.41372    0.45981    0.85424    1.000
    N2590    N        0.41118    0.32669    0.97059    1.000
    N2591    N        0.44280    0.29352    0.90336    1.000
    N2592    N        0.45314    0.26769    0.96567    1.000
    Si2593   Si       0.45287    0.31307    0.97328    1.000
    Si2594   Si       0.40272    0.31036    0.89165    1.000
    N2595    N        0.40101    0.35328    0.90072    1.000
    N2596    N        0.44742    0.45103    0.91929    1.000
    N2597    N        0.42277    0.39337    0.94958    1.000
    Si2598   Si       0.45034    0.47785    0.95449    1.000
    N2599    N        0.42978    0.45596    0.98815    1.000
    N2600    N        0.41450    0.41970    0.87748    1.000
    Si2601   Si       0.41138    0.42626    0.92034    1.000
    N2602    N        0.41695    0.50534    0.95195    1.000
    N2603    N        0.45539    0.58242    0.10289    1.000
    Si2604   Si       0.43396    0.61720    0.11560    1.000
    N2605    N        0.42092    0.63695    0.07719    1.000
    Si2606   Si       0.41689    0.67786    0.06116    1.000
    N2607    N        0.41721    0.70452    0.09414    1.000
    N2608    N        0.41201    0.74409    0.01830    1.000
    Si2609   Si       0.45376    0.73947    0.02454    1.000
    N2610    N        0.45475    0.69680    0.03816    1.000
    N2611    N        0.45416    0.63585    0.99743    1.000
    Si2612   Si       0.45146    0.54314    0.12174    1.000
    N2613    N        0.41001    0.52858    0.13023    1.000
    Si2614   Si       0.44525    0.56042    0.19457    1.000
    N2615    N        0.41877    0.52913    0.20791    1.000
    N2616    N        0.42997    0.59725    0.18234    1.000
    Si2617   Si       0.40496    0.71064    0.13501    1.000
    N2618    N        0.44705    0.66056    0.20829    1.000
    Si2619   Si       0.41756    0.68707    0.19237    1.000
    N2620    N        0.43596    0.71605    0.16691    1.000
    N2621    N        0.41318    0.60357    0.27742    1.000
    Si2622   Si       0.41725    0.51909    0.31646    1.000
    N2623    N        0.40830    0.53578    0.27876    1.000
    Si2624   Si       0.45433    0.59503    0.27009    1.000
    N2625    N        0.40531    0.54438    0.34991    1.000
    Si2626   Si       0.42921    0.51508    0.24681    1.000
    N2627    N        0.42853    0.67375    0.27730    1.000
    Si2628   Si       0.43011    0.70902    0.30252    1.000
    N2629    N        0.45421    0.73884    0.27995    1.000
    N2630    N        0.45727    0.69645    0.33396    1.000
    Si2631   Si       0.42155    0.56912    0.38089    1.000
    N2632    N        0.43429    0.54308    0.41356    1.000
    Si2633   Si       0.42558    0.71624    0.49569    1.000
    Si2634   Si       0.44075    0.70003    0.37298    1.000
    N2635    N        0.42589    0.73926    0.38486    1.000
    N2636    N        0.40926    0.66851    0.37714    1.000
    N2637    N        0.43782    0.70921    0.45205    1.000
    Si2638   Si       0.41240    0.63922    0.40937    1.000
    N2639    N        0.45203    0.63413    0.42570    1.000
    Si2640   Si       0.42528    0.74371    0.42895    1.000
    N2641    N        0.42421    0.57689    0.54326    1.000
    Si2642   Si       0.43813    0.54759    0.51641    1.000
    N2643    N        0.41478    0.53375    0.60811    1.000
    N2644    N        0.43769    0.62575    0.57980    1.000
    Si2645   Si       0.45461    0.52672    0.58687    1.000
    N2646    N        0.41286    0.51556    0.49869    1.000
    Si2647   Si       0.39911    0.60509    0.57006    1.000
    N2648    N        0.42917    0.69277    0.57310    1.000
    Si2649   Si       0.45665    0.72496    0.55732    1.000
    Si2650   Si       0.45730    0.66219    0.59272    1.000
    N2651    N        0.41182    0.75627    0.49611    1.000
    Si2652   Si       0.41274    0.56999    0.63442    1.000
    N2653    N        0.45026    0.58499    0.64906    1.000
    Si2654   Si       0.42632    0.54004    0.69224    1.000
    Si2655   Si       0.44765    0.60324    0.68892    1.000
    N2656    N        0.44708    0.56936    0.71744    1.000
    N2657    N        0.44593    0.51351    0.66286    1.000
    N2658    N        0.41659    0.63338    0.68772    1.000
    N2659    N        0.43179    0.69832    0.68536    1.000
    Si2660   Si       0.41913    0.66743    0.65881    1.000
    Si2661   Si       0.41091    0.73656    0.68958    1.000
    N2662    N        0.45701    0.66813    0.63748    1.000
    N2663    N        0.42902    0.75536    0.72344    1.000
    N2664    N        0.43723    0.53971    0.77920    1.000
    N2665    N        0.43818    0.56280    0.85194    1.000
    N2666    N        0.44979    0.60294    0.79022    1.000
    Si2667   Si       0.41384    0.51882    0.80949    1.000
    Si2668   Si       0.40962    0.62235    0.79064    1.000
    Si2669   Si       0.46278    0.52737    0.85276    1.000
    Si2670   Si       0.42021    0.68836    0.78282    1.000
    N2671    N        0.44936    0.66099    0.76389    1.000
    N2672    N        0.43963    0.72463    0.79619    1.000
    Si2673   Si       0.41513    0.74838    0.76574    1.000
    N2674    N        0.43956    0.62702    0.87328    1.000
    Si2675   Si       0.41858    0.54697    0.94598    1.000
    Si2676   Si       0.42688    0.58722    0.88596    1.000
    N2677    N        0.44506    0.55789    0.91483    1.000
    N2678    N        0.43137    0.57236    0.98015    1.000
    N2679    N        0.44001    0.64684    0.93315    1.000
    N2680    N        0.43390    0.70378    0.89412    1.000
    N2681    N        0.41102    0.68760    0.97960    1.000
    Si2682   Si       0.41946    0.66028    0.89654    1.000
    Si2683   Si       0.40930    0.73886    0.89658    1.000
    Si2684   Si       0.42134    0.64794    0.97123    1.000
    N2685    N        0.42258    0.81695    0.02807    1.000
    N2686    N        0.45125    0.77033    0.05910    1.000
    N2687    N        0.45210    0.84341    0.08583    1.000
    Si2688   Si       0.40551    0.77949    0.04535    1.000
    N2689    N        0.40900    0.87972    0.02315    1.000
    Si2690   Si       0.41749    0.84650    0.99678    1.000
    Si2691   Si       0.41826    0.90042    0.06075    1.000
    Si2692   Si       0.43471    0.96455    0.02214    1.000
    N2693    N        0.40508    0.94408    0.05026    1.000
    N2694    N        0.45612    0.90729    0.07812    1.000
    N2695    N        0.41775    0.00438    0.02469    1.000
    Si2696   Si       0.40899    0.77767    0.12510    1.000
    N2697    N        0.43589    0.85394    0.21411    1.000
    N2698    N        0.41276    0.80773    0.15730    1.000
    Si2699   Si       0.45807    0.87023    0.17893    1.000
    N2700    N        0.45430    0.77024    0.12835    1.000
    Si2701   Si       0.45840    0.80370    0.15892    1.000
    N2702    N        0.44030    0.88693    0.14430    1.000
    N2703    N        0.43826    0.99773    0.23928    1.000
    Si2704   Si       0.40985    0.96879    0.16937    1.000
    N2705    N        0.44393    0.95107    0.19066    1.000
    Si2706   Si       0.44512    0.95492    0.23473    1.000
    N2707    N        0.42590    0.99075    0.13485    1.000
    Si2708   Si       0.43445    0.77867    0.28107    1.000
    Si2709   Si       0.44612    0.77218    0.36268    1.000
    N2710    N        0.42302    0.77568    0.32484    1.000
    N2711    N        0.46230    0.80388    0.25872    1.000
    Si2712   Si       0.43443    0.85426    0.37200    1.000
    Si2713   Si       0.46556    0.84540    0.24463    1.000
    N2714    N        0.41370    0.90019    0.30848    1.000
    N2715    N        0.41097    0.94978    0.26384    1.000
    Si2716   Si       0.41194    0.99603    0.27642    1.000
    Si2717   Si       0.42282    0.97386    0.36218    1.000
    N2718    N        0.40507    0.98488    0.31897    1.000
    Si2719   Si       0.45540    0.89298    0.31069    1.000
    N2720    N        0.44205    0.81117    0.37963    1.000
    N2721    N        0.44776    0.78045    0.43594    1.000
    N2722    N        0.45246    0.86451    0.40974    1.000
    Si2723   Si       0.45594    0.82052    0.41951    1.000
    N2724    N        0.42871    0.95730    0.40485    1.000
    Si2725   Si       0.41921    0.99973    0.42232    1.000
    N2726    N        0.44656    0.92186    0.46292    1.000
    Si2727   Si       0.40450    0.91165    0.46520    1.000
    Si2728   Si       0.46127    0.95295    0.43443    1.000
    N2729    N        0.42000    0.80439    0.60329    1.000
    Si2730   Si       0.42263    0.86557    0.51991    1.000
    Si2731   Si       0.42969    0.78567    0.52249    1.000
    N2732    N        0.41780    0.82729    0.53892    1.000
    N2733    N        0.44305    0.76584    0.55758    1.000
    Si2734   Si       0.45828    0.79687    0.58416    1.000
    Si2735   Si       0.43735    0.91865    0.57640    1.000
    N2736    N        0.41689    0.90286    0.54266    1.000
    Si2737   Si       0.42427    0.00023    0.53537    1.000
    N2738    N        0.40451    0.93216    0.60201    1.000
    N2739    N        0.45841    0.95106    0.55747    1.000
    N2740    N        0.43462    0.82311    0.72582    1.000
    Si2741   Si       0.43733    0.86102    0.70718    1.000
    N2742    N        0.44277    0.85865    0.66347    1.000
    N2743    N        0.42464    0.76031    0.65675    1.000
    Si2744   Si       0.40586    0.85500    0.64147    1.000
    N2745    N        0.39997    0.95130    0.68969    1.000
    Si2746   Si       0.42475    0.97420    0.71711    1.000
    N2747    N        0.40324    0.88533    0.72137    1.000
    N2748    N        0.43668    0.82706    0.84590    1.000
    N2749    N        0.43961    0.78609    0.78151    1.000
    Si2750   Si       0.43754    0.82493    0.80156    1.000
    Si2751   Si       0.41357    0.85823    0.86573    1.000
    N2752    N        0.40100    0.84093    0.78064    1.000
    N2753    N        0.43461    0.89655    0.79044    1.000
    Si2754   Si       0.43336    0.91992    0.82992    1.000
    N2755    N        0.44488    0.89001    0.85961    1.000
    N2756    N        0.40824    0.98382    0.75604    1.000
    Si2757   Si       0.45844    0.99519    0.83385    1.000
    N2758    N        0.46119    0.95365    0.81879    1.000
    N2759    N        0.42641    0.77277    0.91891    1.000
    N2760    N        0.44939    0.86788    0.96832    1.000
    Si2761   Si       0.43079    0.87766    0.93057    1.000
    N2762    N        0.40228    0.84969    0.90701    1.000
    Si2763   Si       0.42083    0.99398    0.90832    1.000
    N2764    N        0.45028    0.99124    0.87731    1.000
    N2765    N        0.45493    0.91458    0.92087    1.000
    N2766    N        0.43543    0.93770    0.98799    1.000
    N2767    N        0.45562    0.98918    0.94154    1.000
    Si2768   Si       0.49411    0.03978    0.07543    1.000
    N2769    N        0.50517    0.06792    0.10873    1.000
    Si2770   Si       0.49370    0.06483    0.00904    1.000
    N2771    N        0.48096    0.10824    0.00775    1.000
    N2772    N        0.46911    0.05323    0.04277    1.000
    N2773    N        0.50787    0.12554    0.07236    1.000
    N2774    N        0.47112    0.01062    0.09857    1.000
    Si2775   Si       0.51854    0.11887    0.02939    1.000
    Si2776   Si       0.47061    0.14495    0.08684    1.000
    Si2777   Si       0.48587    0.20050    0.03634    1.000
    N2778    N        0.49445    0.17305    0.00099    1.000
    N2779    N        0.46743    0.23691    0.02084    1.000
    N2780    N        0.48400    0.09092    0.17295    1.000
    Si2781   Si       0.48039    0.06053    0.14324    1.000
    Si2782   Si       0.47623    0.10240    0.21536    1.000
    N2783    N        0.48863    0.02130    0.16094    1.000
    N2784    N        0.51168    0.12641    0.22550    1.000
    N2785    N        0.47435    0.06547    0.23613    1.000
    Si2786   Si       0.48294    0.13156    0.15810    1.000
    N2787    N        0.51561    0.01303    0.23228    1.000
    Si2788   Si       0.47740    0.23371    0.14760    1.000
    N2789    N        0.49903    0.25690    0.17903    1.000
    N2790    N        0.50568    0.20455    0.13300    1.000
    Si2791   Si       0.50908    0.17164    0.21619    1.000
    N2792    N        0.49343    0.21048    0.23101    1.000
    N2793    N        0.47408    0.15951    0.18914    1.000
    Si2794   Si       0.49501    0.09194    0.31932    1.000
    N2795    N        0.50052    0.08666    0.36406    1.000
    N2796    N        0.50993    0.05964    0.29418    1.000
    N2797    N        0.51636    0.12806    0.30855    1.000
    Si2798   Si       0.51490    0.05384    0.24958    1.000
    Si2799   Si       0.49132    0.23043    0.30714    1.000
    Si2800   Si       0.48131    0.17515    0.34991    1.000
    N2801    N        0.50972    0.19408    0.32276    1.000
    N2802    N        0.50981    0.04568    0.42170    1.000
    N2803    N        0.48566    0.10851    0.43527    1.000
    Si2804   Si       0.48140    0.11678    0.39319    1.000
    Si2805   Si       0.50097    0.07417    0.45391    1.000
    N2806    N        0.47723    0.05885    0.48629    1.000
    Si2807   Si       0.45863    0.13314    0.45908    1.000
    N2808    N        0.46589    0.20549    0.37726    1.000
    N2809    N        0.46734    0.17201    0.44393    1.000
    N2810    N        0.50453    0.15603    0.38401    1.000
    N2811    N        0.47455    0.23587    0.47749    1.000
    Si2812   Si       0.51574    0.22927    0.46786    1.000
    Si2813   Si       0.48764    0.18942    0.41068    1.000
    N2814    N        0.51914    0.21469    0.42763    1.000
    Si2815   Si       0.48394    0.08744    0.52018    1.000
    N2816    N        0.50208    0.09076    0.60671    1.000
    Si2817   Si       0.46582    0.10827    0.59034    1.000
    N2818    N        0.47041    0.12308    0.49997    1.000
    Si2819   Si       0.48214    0.17942    0.58367    1.000
    N2820    N        0.45819    0.14578    0.56939    1.000
    Si2821   Si       0.47103    0.10027    0.70301    1.000
    N2822    N        0.50429    0.07958    0.67918    1.000
    Si2823   Si       0.49377    0.06481    0.63975    1.000
    N2824    N        0.47423    0.09409    0.74540    1.000
    N2825    N        0.52316    0.03105    0.63531    1.000
    Si2826   Si       0.50163    0.23513    0.71157    1.000
    N2827    N        0.49279    0.17366    0.62684    1.000
    N2828    N        0.46372    0.21339    0.72068    1.000
    Si2829   Si       0.47942    0.17126    0.72773    1.000
    N2830    N        0.48733    0.24388    0.63537    1.000
    Si2831   Si       0.51473    0.20823    0.64215    1.000
    N2832    N        0.47773    0.14217    0.69469    1.000
    Si2833   Si       0.46326    0.15308    0.65417    1.000
    N2834    N        0.49057    0.06508    0.80434    1.000
    Si2835   Si       0.48997    0.05683    0.76092    1.000
    Si2836   Si       0.47936    0.12112    0.78108    1.000
    N2837    N        0.46716    0.02160    0.75249    1.000
    N2838    N        0.49679    0.01240    0.84359    1.000
    Si2839   Si       0.51948    0.04590    0.82938    1.000
    N2840    N        0.47082    0.13834    0.82026    1.000
    N2841    N        0.47465    0.20927    0.84419    1.000
    Si2842   Si       0.48747    0.16713    0.84696    1.000
    Si2843   Si       0.48976    0.24421    0.82538    1.000
    N2844    N        0.48652    0.03946    0.91421    1.000
    N2845    N        0.50300    0.03333    0.98223    1.000
    Si2846   Si       0.47053    0.02652    0.95389    1.000
    N2847    N        0.50505    0.09832    0.90592    1.000
    Si2848   Si       0.46815    0.07503    0.90090    1.000
    Si2849   Si       0.50844    0.14916    0.92086    1.000
    N2850    N        0.51937    0.19327    0.93350    1.000
    Si2851   Si       0.47007    0.14228    0.98259    1.000
    N2852    N        0.48960    0.25393    0.90990    1.000
    N2853    N        0.46945    0.14966    0.93991    1.000
    Si2854   Si       0.47412    0.32137    0.05794    1.000
    N2855    N        0.49874    0.28590    0.06248    1.000
    N2856    N        0.50531    0.35173    0.05132    1.000
    Si2857   Si       0.48820    0.27436    0.02110    1.000
    Si2858   Si       0.51174    0.28540    0.10372    1.000
    Si2859   Si       0.49989    0.39044    0.03345    1.000
    Si2860   Si       0.49487    0.41976    0.10365    1.000
    N2861    N        0.50564    0.42174    0.06228    1.000
    Si2862   Si       0.50976    0.49811    0.10357    1.000
    N2863    N        0.48873    0.46202    0.11723    1.000
    N2864    N        0.51863    0.46546    0.00087    1.000
    N2865    N        0.46040    0.39283    0.01258    1.000
    N2866    N        0.47176    0.26940    0.11906    1.000
    Si2867   Si       0.50814    0.35021    0.20958    1.000
    Si2868   Si       0.46812    0.28278    0.20320    1.000
    N2869    N        0.46702    0.36647    0.20452    1.000
    N2870    N        0.50415    0.30562    0.21609    1.000
    Si2871   Si       0.49717    0.47894    0.23468    1.000
    Si2872   Si       0.47478    0.46283    0.15879    1.000
    N2873    N        0.48535    0.42089    0.16734    1.000
    N2874    N        0.49142    0.48552    0.19147    1.000
    Si2875   Si       0.49596    0.29913    0.33321    1.000
    N2876    N        0.48936    0.32476    0.29615    1.000
    N2877    N        0.48009    0.32142    0.36558    1.000
    Si2878   Si       0.51533    0.35794    0.28277    1.000
    N2879    N        0.47825    0.26017    0.33603    1.000
    N2880    N        0.48863    0.39034    0.29270    1.000
    Si2881   Si       0.49714    0.43308    0.29412    1.000
    Si2882   Si       0.46924    0.47355    0.34716    1.000
    N2883    N        0.50651    0.48565    0.36611    1.000
    N2884    N        0.46820    0.43743    0.32627    1.000
    N2885    N        0.48166    0.44528    0.25567    1.000
    N2886    N        0.45749    0.50557    0.31959    1.000
    Si2887   Si       0.46658    0.30503    0.40669    1.000
    Si2888   Si       0.46577    0.36125    0.37794    1.000
    Si2889   Si       0.50681    0.33801    0.46676    1.000
    N2890    N        0.50160    0.30930    0.42978    1.000
    N2891    N        0.48029    0.31100    0.49112    1.000
    N2892    N        0.49828    0.37853    0.44766    1.000
    Si2893   Si       0.49061    0.39779    0.48575    1.000
    N2894    N        0.46715    0.43949    0.48364    1.000
    N2895    N        0.50317    0.38527    0.37920    1.000
    Si2896   Si       0.49080    0.46729    0.45971    1.000
    Si2897   Si       0.51260    0.40489    0.41689    1.000
    N2898    N        0.51002    0.44646    0.42623    1.000
    N2899    N        0.47514    0.50190    0.43700    1.000
    N2900    N        0.49634    0.32994    0.56126    1.000
    Si2901   Si       0.47379    0.34249    0.52250    1.000
    Si2902   Si       0.49020    0.33929    0.60330    1.000
    N2903    N        0.51004    0.36397    0.50753    1.000
    N2904    N        0.51201    0.37749    0.61044    1.000
    Si2905   Si       0.48904    0.45611    0.59308    1.000
    N2906    N        0.49565    0.45679    0.55053    1.000
    N2907    N        0.47794    0.49584    0.60625    1.000
    Si2908   Si       0.47001    0.47997    0.52689    1.000
    N2909    N        0.46053    0.42558    0.60506    1.000
    N2910    N        0.50245    0.49178    0.49465    1.000
    N2911    N        0.49908    0.27633    0.69955    1.000
    Si2912   Si       0.48482    0.28269    0.65795    1.000
    N2913    N        0.50568    0.30927    0.63114    1.000
    Si2914   Si       0.50184    0.30993    0.72783    1.000
    Si2915   Si       0.50010    0.38327    0.69935    1.000
    N2916    N        0.51759    0.34518    0.70657    1.000
    N2917    N        0.51597    0.48351    0.66107    1.000
    Si2918   Si       0.49936    0.40900    0.63809    1.000
    N2919    N        0.48263    0.47661    0.72155    1.000
    N2920    N        0.48204    0.40781    0.73097    1.000
    N2921    N        0.47041    0.38881    0.66357    1.000
    N2922    N        0.48852    0.28518    0.84527    1.000
    N2923    N        0.47700    0.33262    0.79658    1.000
    Si2924   Si       0.49551    0.29421    0.80030    1.000
    Si2925   Si       0.50600    0.36613    0.80113    1.000
    N2926    N        0.46392    0.26192    0.79253    1.000
    N2927    N        0.52191    0.29700    0.76442    1.000
    N2928    N        0.47927    0.39819    0.81762    1.000
    Si2929   Si       0.50382    0.40341    0.85421    1.000
    N2930    N        0.49443    0.46090    0.78772    1.000
    N2931    N        0.48555    0.44502    0.85513    1.000
    Si2932   Si       0.46750    0.44277    0.81558    1.000
    Si2933   Si       0.49921    0.44532    0.74629    1.000
    N2934    N        0.47626    0.34751    0.95570    1.000
    Si2935   Si       0.48226    0.29022    0.88710    1.000
    Si2936   Si       0.50565    0.35882    0.92249    1.000
    N2937    N        0.51118    0.32380    0.89670    1.000
    Si2938   Si       0.48574    0.43058    0.91606    1.000
    N2939    N        0.48922    0.39193    0.89341    1.000
    N2940    N        0.49436    0.41408    0.95644    1.000
    Si2941   Si       0.46189    0.38641    0.96888    1.000
    N2942    N        0.48077    0.50742    0.95766    1.000
    Si2943   Si       0.50750    0.47671    0.87429    1.000
    N2944    N        0.51816    0.45544    0.90845    1.000
    Si2945   Si       0.49161    0.57011    0.07999    1.000
    N2946    N        0.48442    0.58566    0.03769    1.000
    N2947    N        0.47989    0.52696    0.09446    1.000
    Si2948   Si       0.46586    0.59420    0.99876    1.000
    N2949    N        0.51636    0.60554    0.10119    1.000
    N2950    N        0.49714    0.67523    0.09584    1.000
    Si2951   Si       0.49397    0.70048    0.06195    1.000
    N2952    N        0.50853    0.73683    0.07410    1.000
    Si2953   Si       0.47572    0.67054    0.00840    1.000
    N2954    N        0.51405    0.68041    0.02868    1.000
    N2955    N        0.48397    0.75074    0.99755    1.000
    Si2956   Si       0.49853    0.64029    0.11900    1.000
    N2957    N        0.47032    0.54545    0.16133    1.000
    N2958    N        0.50371    0.61702    0.19620    1.000
    Si2959   Si       0.50502    0.52476    0.17689    1.000
    Si2960   Si       0.50938    0.58383    0.22335    1.000
    N2961    N        0.46722    0.57536    0.23200    1.000
    Si2962   Si       0.46386    0.62721    0.18387    1.000
    Si2963   Si       0.46927    0.74362    0.16376    1.000
    N2964    N        0.49466    0.69282    0.24481    1.000
    N2965    N        0.46390    0.63642    0.14229    1.000
    N2966    N        0.50351    0.72744    0.14721    1.000
    Si2967   Si       0.48693    0.58057    0.33745    1.000
    Si2968   Si       0.48262    0.52862    0.29248    1.000
    N2969    N        0.46837    0.56842    0.30041    1.000
    N2970    N        0.47897    0.62988    0.26633    1.000
    N2971    N        0.47344    0.51044    0.25515    1.000
    N2972    N        0.45836    0.59057    0.36848    1.000
    Si2973   Si       0.51905    0.62196    0.28388    1.000
    N2974    N        0.50917    0.61495    0.32526    1.000
    Si2975   Si       0.49360    0.71736    0.33712    1.000
    Si2976   Si       0.49497    0.73222    0.26566    1.000
    N2977    N        0.51584    0.71943    0.30081    1.000
    Si2978   Si       0.46156    0.66582    0.24829    1.000
    N2979    N        0.48533    0.75563    0.35494    1.000
    N2980    N        0.46567    0.55947    0.48412    1.000
    Si2981   Si       0.46868    0.54663    0.44186    1.000
    Si2982   Si       0.48008    0.60769    0.40424    1.000
    N2983    N        0.49668    0.57278    0.42268    1.000
    N2984    N        0.51306    0.63421    0.39242    1.000
    N2985    N        0.47497    0.69147    0.40036    1.000
    Si2986   Si       0.51590    0.67779    0.39272    1.000
    N2987    N        0.50451    0.74969    0.46002    1.000
    Si2988   Si       0.46459    0.67475    0.44113    1.000
    N2989    N        0.49821    0.67781    0.46940    1.000
    Si2990   Si       0.49620    0.71717    0.48858    1.000
    N2991    N        0.48809    0.60263    0.53234    1.000
    N2992    N        0.47485    0.56446    0.59264    1.000
    Si2993   Si       0.50113    0.57828    0.50053    1.000
    Si2994   Si       0.46038    0.59173    0.56168    1.000
    N2995    N        0.45977    0.51985    0.54421    1.000
    N2996    N        0.49592    0.72325    0.57734    1.000
    N2997    N        0.49719    0.65960    0.57389    1.000
    Si2998   Si       0.51160    0.74018    0.61457    1.000
    N2999    N        0.46330    0.71355    0.51635    1.000
    N3000    N        0.51420    0.61220    0.64094    1.000
    N3001    N        0.51035    0.54764    0.64991    1.000
    N3002    N        0.48223    0.62432    0.70473    1.000
    Si3003   Si       0.48897    0.57950    0.63155    1.000
    Si3004   Si       0.48682    0.51108    0.64761    1.000
    Si3005   Si       0.47146    0.69502    0.67100    1.000
    Si3006   Si       0.48125    0.65551    0.73435    1.000
    N3007    N        0.49234    0.69029    0.71099    1.000
    N3008    N        0.48736    0.72736    0.64972    1.000
    N3009    N        0.49284    0.54731    0.82694    1.000
    N3010    N        0.49540    0.61650    0.83381    1.000
    N3011    N        0.50684    0.56755    0.76329    1.000
    Si3012   Si       0.46686    0.58299    0.82679    1.000
    Si3013   Si       0.46282    0.56903    0.75933    1.000
    N3014    N        0.50657    0.63887    0.76385    1.000
    N3015    N        0.47008    0.67143    0.82544    1.000
    Si3016   Si       0.47692    0.63951    0.79464    1.000
    Si3017   Si       0.47627    0.64717    0.86121    1.000
    N3018    N        0.50294    0.72343    0.78988    1.000
    N3019    N        0.48788    0.73036    0.85814    1.000
    Si3020   Si       0.47345    0.71370    0.82164    1.000
    Si3021   Si       0.48048    0.53556    0.92199    1.000
    N3022    N        0.50389    0.58746    0.98000    1.000
    N3023    N        0.48545    0.51048    0.88613    1.000
    N3024    N        0.51512    0.56127    0.91939    1.000
    N3025    N        0.52028    0.63225    0.93413    1.000
    Si3026   Si       0.47629    0.71128    0.89550    1.000
    N3027    N        0.48666    0.68531    0.96801    1.000
    Si3028   Si       0.50425    0.72535    0.96875    1.000
    N3029    N        0.49235    0.73761    0.92784    1.000
    Si3030   Si       0.48342    0.65553    0.93617    1.000
    N3031    N        0.49255    0.66983    0.89449    1.000
    N3032    N        0.48579    0.82402    0.02039    1.000
    Si3033   Si       0.51061    0.85782    0.01358    1.000
    N3034    N        0.50367    0.80391    0.08395    1.000
    Si3035   Si       0.48218    0.76670    0.09283    1.000
    Si3036   Si       0.46534    0.87662    0.10950    1.000
    Si3037   Si       0.46061    0.81474    0.05531    1.000
    N3038    N        0.50927    0.88411    0.11642    1.000
    N3039    N        0.48871    0.89446    0.01975    1.000
    Si3040   Si       0.48592    0.92311    0.05124    1.000
    N3041    N        0.47557    0.96147    0.03501    1.000
    Si3042   Si       0.51571    0.97761    0.04503    1.000
    Si3043   Si       0.52081    0.92631    0.11285    1.000
    N3044    N        0.47203    0.77835    0.19005    1.000
    N3045    N        0.50304    0.83766    0.22472    1.000
    N3046    N        0.48225    0.84046    0.15346    1.000
    Si3047   Si       0.49123    0.79295    0.22570    1.000
    N3048    N        0.51596    0.76188    0.24227    1.000
    Si3049   Si       0.52210    0.87377    0.21191    1.000
    Si3050   Si       0.48210    0.93618    0.17599    1.000
    N3051    N        0.51256    0.96478    0.19034    1.000
    N3052    N        0.48797    0.89794    0.19450    1.000
    N3053    N        0.48683    0.94798    0.13395    1.000
    Si3054   Si       0.47071    0.98910    0.13566    1.000
    Si3055   Si       0.52048    0.00716    0.19055    1.000
    Si3056   Si       0.50625    0.85424    0.34789    1.000
    N3057    N        0.47051    0.87841    0.27126    1.000
    N3058    N        0.46422    0.86452    0.34285    1.000
    N3059    N        0.48830    0.92349    0.31157    1.000
    Si3060   Si       0.49882    0.96116    0.32845    1.000
    Si3061   Si       0.49969    0.91039    0.27080    1.000
    N3062    N        0.46508    0.97436    0.35180    1.000
    N3063    N        0.48384    0.94751    0.25103    1.000
    Si3064   Si       0.51402    0.97807    0.25682    1.000
    N3065    N        0.51266    0.99037    0.29907    1.000
    Si3066   Si       0.47994    0.78362    0.46358    1.000
    N3067    N        0.49599    0.81897    0.44108    1.000
    N3068    N        0.50372    0.88624    0.45436    1.000
    N3069    N        0.46394    0.99608    0.44018    1.000
    Si3070   Si       0.48612    0.89168    0.41340    1.000
    N3071    N        0.51514    0.87903    0.38181    1.000
    N3072    N        0.49338    0.93626    0.41185    1.000
    Si3073   Si       0.50718    0.00425    0.43543    1.000
    Si3074   Si       0.47867    0.90356    0.48469    1.000
    Si3075   Si       0.48279    0.83163    0.51857    1.000
    N3076    N        0.48076    0.82793    0.56140    1.000
    Si3077   Si       0.49660    0.86617    0.58132    1.000
    N3078    N        0.48608    0.78057    0.61309    1.000
    N3079    N        0.46463    0.87036    0.50767    1.000
    N3080    N        0.46563    0.79699    0.50070    1.000
    N3081    N        0.50165    0.84807    0.61990    1.000
    Si3082   Si       0.51841    0.80976    0.61120    1.000
    Si3083   Si       0.49503    0.97744    0.50779    1.000
    Si3084   Si       0.47850    0.98596    0.57490    1.000
    N3085    N        0.49166    0.97012    0.61324    1.000
    N3086    N        0.47296    0.89993    0.59381    1.000
    N3087    N        0.51091    0.99225    0.54654    1.000
    N3088    N        0.50411    0.93443    0.50014    1.000
    Si3089   Si       0.49505    0.92752    0.62000    1.000
    N3090    N        0.45448    0.99240    0.50526    1.000
    Si3091   Si       0.46784    0.76589    0.65060    1.000
    Si3092   Si       0.48405    0.86838    0.65479    1.000
    N3093    N        0.48128    0.79124    0.68247    1.000
    N3094    N        0.51279    0.85623    0.68441    1.000
    N3095    N        0.49123    0.76891    0.74279    1.000
    Si3096   Si       0.45839    0.78722    0.71987    1.000
    N3097    N        0.48384    0.91183    0.65957    1.000
    Si3098   Si       0.48136    0.92038    0.70216    1.000
    N3099    N        0.46464    0.95757    0.71832    1.000
    Si3100   Si       0.48951    0.98497    0.74462    1.000
    N3101    N        0.46629    0.88759    0.72807    1.000
    N3102    N        0.47462    0.84171    0.78830    1.000
    N3103    N        0.49952    0.78578    0.81630    1.000
    Si3104   Si       0.50633    0.77019    0.85549    1.000
    Si3105   Si       0.50788    0.82742    0.81233    1.000
    N3106    N        0.50795    0.84053    0.85419    1.000
    Si3107   Si       0.47950    0.76400    0.78392    1.000
    Si3108   Si       0.46951    0.87996    0.77130    1.000
    Si3109   Si       0.49935    0.94138    0.80425    1.000
    N3110    N        0.50329    0.90408    0.78414    1.000
    N3111    N        0.51223    0.97451    0.77930    1.000
    Si3112   Si       0.47190    0.82860    0.87161    1.000
    Si3113   Si       0.46839    0.77400    0.92420    1.000
    N3114    N        0.47752    0.80232    0.95475    1.000
    N3115    N        0.48071    0.78944    0.88601    1.000
    Si3116   Si       0.48253    0.84508    0.94936    1.000
    Si3117   Si       0.49758    0.79265    0.99255    1.000
    N3118    N        0.46913    0.85495    0.90797    1.000
    N3119    N        0.51658    0.85754    0.96955    1.000
    Si3120   Si       0.47491    0.95069    0.93189    1.000
    Si3121   Si       0.46889    0.90919    0.98337    1.000
    N3122    N        0.50145    0.95967    0.89703    1.000
    N3123    N        0.49897    0.93565    0.96429    1.000
    Si3124   Si       0.49371    0.00130    0.88551    1.000
    Si3125   Si       0.47633    0.89455    0.88787    1.000
    N3126    N        0.51947    0.89588    0.87996    1.000
    N3127    N        0.53357    0.07658    0.02700    1.000
    Si3128   Si       0.55604    0.03996    0.03636    1.000
    Si3129   Si       0.52925    0.10529    0.10661    1.000
    N3130    N        0.57288    0.09763    0.10924    1.000
    N3131    N        0.52567    0.01726    0.05590    1.000
    N3132    N        0.57248    0.02870    0.99744    1.000
    N3133    N        0.55387    0.14444    0.02324    1.000
    Si3134   Si       0.52938    0.21723    0.09823    1.000
    Si3135   Si       0.55800    0.18706    0.03469    1.000
    N3136    N        0.56275    0.18873    0.11351    1.000
    N3137    N        0.52380    0.20385    0.05841    1.000
    N3138    N        0.54405    0.25724    0.11118    1.000
    Si3139   Si       0.55253    0.11184    0.21583    1.000
    N3140    N        0.55209    0.07047    0.22924    1.000
    N3141    N        0.57520    0.11762    0.17898    1.000
    N3142    N        0.51998    0.13682    0.13745    1.000
    N3143    N        0.55281    0.25088    0.22402    1.000
    Si3144   Si       0.53563    0.17559    0.14543    1.000
    N3145    N        0.54416    0.17688    0.18708    1.000
    N3146    N        0.53701    0.02949    0.35648    1.000
    Si3147   Si       0.53135    0.02658    0.31467    1.000
    N3148    N        0.57020    0.02948    0.29084    1.000
    N3149    N        0.57017    0.12824    0.36222    1.000
    N3150    N        0.54036    0.18576    0.25960    1.000
    Si3151   Si       0.53217    0.16538    0.29961    1.000
    N3152    N        0.52360    0.25018    0.28568    1.000
    N3153    N        0.57418    0.16981    0.30750    1.000
    Si3154   Si       0.52968    0.22686    0.24996    1.000
    N3155    N        0.56483    0.07939    0.40448    1.000
    N3156    N        0.53925    0.08643    0.47047    1.000
    Si3157   Si       0.53095    0.06269    0.38622    1.000
    Si3158   Si       0.56785    0.10189    0.44127    1.000
    Si3159   Si       0.54825    0.15496    0.38820    1.000
    Si3160   Si       0.55745    0.22578    0.40929    1.000
    N3161    N        0.56507    0.19374    0.37896    1.000
    N3162    N        0.55974    0.14362    0.42920    1.000
    N3163    N        0.55803    0.14957    0.49418    1.000
    Si3164   Si       0.55329    0.10661    0.50620    1.000
    N3165    N        0.56116    0.06290    0.58407    1.000
    Si3166   Si       0.53569    0.09837    0.58027    1.000
    N3167    N        0.52294    0.10071    0.53695    1.000
    N3168    N        0.55792    0.13297    0.59960    1.000
    Si3169   Si       0.54454    0.17690    0.52527    1.000
    Si3170   Si       0.55278    0.17429    0.58718    1.000
    N3171    N        0.53621    0.21359    0.50160    1.000
    Si3172   Si       0.55648    0.25235    0.50948    1.000
    N3173    N        0.55284    0.20389    0.61932    1.000
    N3174    N        0.51723    0.17741    0.55940    1.000
    Si3175   Si       0.56000    0.04991    0.62455    1.000
    Si3176   Si       0.55387    0.02514    0.72727    1.000
    N3177    N        0.55870    0.11307    0.71474    1.000
    N3178    N        0.56293    0.08780    0.64648    1.000
    Si3179   Si       0.54750    0.08289    0.68670    1.000
    N3180    N        0.57145    0.04603    0.69545    1.000
    N3181    N        0.53620    0.23554    0.74072    1.000
    Si3182   Si       0.54624    0.19615    0.72215    1.000
    N3183    N        0.52247    0.20645    0.68479    1.000
    N3184    N        0.51895    0.17522    0.74507    1.000
    N3185    N        0.55407    0.02116    0.82107    1.000
    N3186    N        0.54060    0.06971    0.86299    1.000
    Si3187   Si       0.56843    0.03380    0.86158    1.000
    Si3188   Si       0.55169    0.09793    0.75623    1.000
    N3189    N        0.52325    0.11807    0.77926    1.000
    N3190    N        0.53261    0.05872    0.74614    1.000
    Si3191   Si       0.53849    0.15937    0.78063    1.000
    Si3192   Si       0.54720    0.18213    0.85607    1.000
    Si3193   Si       0.55837    0.25198    0.84191    1.000
    N3194    N        0.52744    0.17660    0.81834    1.000
    N3195    N        0.52945    0.25242    0.80928    1.000
    N3196    N        0.54527    0.22262    0.87308    1.000
    Si3197   Si       0.53919    0.11095    0.87844    1.000
    N3198    N        0.54565    0.06225    0.94408    1.000
    Si3199   Si       0.56014    0.10281    0.94574    1.000
    Si3200   Si       0.54249    0.02762    0.96741    1.000
    Si3201   Si       0.52571    0.05616    0.90618    1.000
    N3202    N        0.54416    0.01422    0.89260    1.000
    N3203    N        0.57255    0.11461    0.90414    1.000
    N3204    N        0.51935    0.15186    0.87580    1.000
    Si3205   Si       0.52740    0.17691    0.97410    1.000
    Si3206   Si       0.52458    0.23095    0.91243    1.000
    N3207    N        0.55610    0.20350    0.99244    1.000
    N3208    N        0.55284    0.25045    0.93802    1.000
    Si3209   Si       0.57366    0.23455    0.96945    1.000
    N3210    N        0.53348    0.13595    0.95625    1.000
    Si3211   Si       0.54261    0.33923    0.06962    1.000
    N3212    N        0.53293    0.32324    0.10934    1.000
    Si3213   Si       0.56285    0.29371    0.01020    1.000
    N3214    N        0.56962    0.31340    0.04715    1.000
    N3215    N        0.56518    0.37650    0.06797    1.000
    N3216    N        0.52601    0.27207    0.00113    1.000
    Si3217   Si       0.52917    0.45235    0.04214    1.000
    N3218    N        0.52921    0.48743    0.06659    1.000
    N3219    N        0.53293    0.39352    0.00500    1.000
    N3220    N        0.57111    0.44006    0.03523    1.000
    Si3221   Si       0.57088    0.39328    0.10753    1.000
    Si3222   Si       0.57865    0.39488    0.03026    1.000
    Si3223   Si       0.57696    0.26601    0.13948    1.000
    N3224    N        0.52933    0.35883    0.17190    1.000
    Si3225   Si       0.55468    0.33505    0.14639    1.000
    N3226    N        0.55733    0.29530    0.16845    1.000
    Si3227   Si       0.53046    0.27818    0.19649    1.000
    N3228    N        0.53274    0.36362    0.24194    1.000
    N3229    N        0.53154    0.40688    0.12244    1.000
    N3230    N        0.54748    0.42068    0.20006    1.000
    Si3231   Si       0.52684    0.40212    0.16563    1.000
    N3232    N        0.54193    0.47991    0.23587    1.000
    Si3233   Si       0.56372    0.39618    0.23373    1.000
    Si3234   Si       0.56269    0.46354    0.19961    1.000
    N3235    N        0.57488    0.50831    0.18796    1.000
    N3236    N        0.53855    0.29492    0.33724    1.000
    N3237    N        0.54476    0.35877    0.31471    1.000
    Si3238   Si       0.53895    0.36908    0.35948    1.000
    Si3239   Si       0.55617    0.26959    0.30585    1.000
    N3240    N        0.57572    0.29794    0.28083    1.000
    N3241    N        0.56854    0.40220    0.35219    1.000
    Si3242   Si       0.55909    0.46130    0.27178    1.000
    Si3243   Si       0.53305    0.49261    0.33175    1.000
    N3244    N        0.56511    0.41766    0.27157    1.000
    N3245    N        0.53000    0.46080    0.30404    1.000
    Si3246   Si       0.57164    0.39427    0.30869    1.000
    Si3247   Si       0.57102    0.30103    0.37600    1.000
    N3248    N        0.55219    0.33215    0.45784    1.000
    N3249    N        0.55676    0.34136    0.38717    1.000
    N3250    N        0.55629    0.26973    0.40157    1.000
    Si3251   Si       0.54136    0.29300    0.43859    1.000
    N3252    N        0.53761    0.26620    0.46995    1.000
    Si3253   Si       0.56751    0.35785    0.42706    1.000
    Si3254   Si       0.56367    0.42001    0.46121    1.000
    N3255    N        0.56634    0.46222    0.39232    1.000
    N3256    N        0.55784    0.40095    0.42257    1.000
    Si3257   Si       0.52705    0.47810    0.40336    1.000
    N3258    N        0.52946    0.42254    0.49077    1.000
    Si3259   Si       0.53991    0.31825    0.55498    1.000
    N3260    N        0.54493    0.27958    0.53936    1.000
    N3261    N        0.56200    0.32176    0.58996    1.000
    N3262    N        0.56800    0.34618    0.53275    1.000
    Si3263   Si       0.54742    0.38353    0.51594    1.000
    N3264    N        0.54489    0.40962    0.55160    1.000
    N3265    N        0.55710    0.47442    0.52414    1.000
    Si3266   Si       0.54337    0.40278    0.59429    1.000
    Si3267   Si       0.52926    0.44363    0.52950    1.000
    N3268    N        0.52479    0.43746    0.61216    1.000
    Si3269   Si       0.55047    0.30765    0.63014    1.000
    Si3270   Si       0.56054    0.34090    0.70360    1.000
    N3271    N        0.57002    0.32078    0.66635    1.000
    N3272    N        0.57304    0.26951    0.63390    1.000
    N3273    N        0.57787    0.44081    0.66220    1.000
    N3274    N        0.57399    0.38173    0.70562    1.000
    Si3275   Si       0.52123    0.48687    0.70447    1.000
    N3276    N        0.52403    0.41183    0.67558    1.000
    Si3277   Si       0.56019    0.42222    0.69784    1.000
    Si3278   Si       0.54725    0.46336    0.64014    1.000
    N3279    N        0.54007    0.45278    0.72535    1.000
    N3280    N        0.54100    0.37454    0.77748    1.000
    Si3281   Si       0.56735    0.37612    0.83867    1.000
    N3282    N        0.56232    0.29174    0.85583    1.000
    N3283    N        0.52604    0.35752    0.83910    1.000
    Si3284   Si       0.53871    0.32662    0.86579    1.000
    Si3285   Si       0.54841    0.26374    0.77074    1.000
    N3286    N        0.54092    0.48576    0.84761    1.000
    N3287    N        0.54454    0.41650    0.84999    1.000
    N3288    N        0.56044    0.45055    0.79174    1.000
    Si3289   Si       0.53091    0.48117    0.80379    1.000
    Si3290   Si       0.55022    0.36523    0.97737    1.000
    N3291    N        0.54744    0.37118    0.93484    1.000
    N3292    N        0.56491    0.32549    0.98111    1.000
    Si3293   Si       0.52635    0.42816    0.98011    1.000
    Si3294   Si       0.51867    0.50305    0.97891    1.000
    Si3295   Si       0.55359    0.46798    0.92841    1.000
    N3296    N        0.56392    0.43810    0.95736    1.000
    N3297    N        0.54583    0.50760    0.94429    1.000
    Si3298   Si       0.54727    0.52037    0.04614    1.000
    Si3299   Si       0.55338    0.58329    0.09308    1.000
    N3300    N        0.56139    0.59500    0.01741    1.000
    N3301    N        0.53148    0.55563    0.06516    1.000
    N3302    N        0.53163    0.53164    0.00708    1.000
    Si3303   Si       0.52357    0.57511    0.01972    1.000
    Si3304   Si       0.55355    0.74130    0.07273    1.000
    N3305    N        0.55906    0.71663    0.10838    1.000
    Si3306   Si       0.55026    0.69690    0.01263    1.000
    N3307    N        0.57580    0.71497    0.04374    1.000
    N3308    N        0.56739    0.56546    0.13185    1.000
    N3309    N        0.57067    0.61090    0.18441    1.000
    Si3310   Si       0.55611    0.52140    0.22483    1.000
    Si3311   Si       0.56763    0.52587    0.14597    1.000
    N3312    N        0.52487    0.54583    0.20815    1.000
    N3313    N        0.52739    0.51302    0.14061    1.000
    N3314    N        0.55272    0.67306    0.20744    1.000
    N3315    N        0.53013    0.65723    0.14612    1.000
    Si3316   Si       0.53681    0.68364    0.24497    1.000
    Si3317   Si       0.52474    0.69684    0.12699    1.000
    Si3318   Si       0.53813    0.64012    0.18300    1.000
    Si3319   Si       0.55386    0.54918    0.33390    1.000
    N3320    N        0.53748    0.59308    0.25676    1.000
    N3321    N        0.52805    0.56969    0.36207    1.000
    Si3322   Si       0.53626    0.61471    0.35927    1.000
    N3323    N        0.52312    0.52923    0.30987    1.000
    N3324    N        0.57003    0.51227    0.34787    1.000
    Si3325   Si       0.57672    0.57907    0.26693    1.000
    Si3326   Si       0.54460    0.68850    0.31256    1.000
    N3327    N        0.54026    0.65889    0.28133    1.000
    N3328    N        0.52873    0.69098    0.35454    1.000
    N3329    N        0.55700    0.75150    0.34927    1.000
    N3330    N        0.56369    0.71677    0.24929    1.000
    Si3331   Si       0.56530    0.60702    0.45754    1.000
    N3332    N        0.52614    0.60760    0.48062    1.000
    N3333    N        0.54283    0.51690    0.41992    1.000
    Si3334   Si       0.53552    0.55968    0.40540    1.000
    N3335    N        0.56340    0.59126    0.41544    1.000
    N3336    N        0.54349    0.70660    0.41315    1.000
    Si3337   Si       0.56066    0.71521    0.37277    1.000
    Si3338   Si       0.53966    0.74124    0.43738    1.000
    N3339    N        0.57337    0.74620    0.46300    1.000
    Si3340   Si       0.52936    0.65053    0.48266    1.000
    N3341    N        0.56894    0.64997    0.46499    1.000
    N3342    N        0.55050    0.60789    0.56507    1.000
    N3343    N        0.52897    0.54917    0.51941    1.000
    Si3344   Si       0.55774    0.56707    0.54744    1.000
    N3345    N        0.55576    0.54126    0.58058    1.000
    Si3346   Si       0.54046    0.51059    0.50467    1.000
    Si3347   Si       0.51685    0.62918    0.55154    1.000
    N3348    N        0.55911    0.69845    0.56633    1.000
    N3349    N        0.53742    0.65828    0.52397    1.000
    N3350    N        0.53106    0.72210    0.51631    1.000
    Si3351   Si       0.57171    0.73500    0.50628    1.000
    Si3352   Si       0.51837    0.69629    0.55057    1.000
    N3353    N        0.57149    0.65729    0.61651    1.000
    N3354    N        0.53789    0.52644    0.70797    1.000
    N3355    N        0.54497    0.58810    0.70066    1.000
    Si3356   Si       0.54498    0.55361    0.67362    1.000
    Si3357   Si       0.54130    0.55847    0.73487    1.000
    Si3358   Si       0.52038    0.62211    0.68258    1.000
    N3359    N        0.54316    0.65817    0.68691    1.000
    Si3360   Si       0.57321    0.73222    0.66477    1.000
    Si3361   Si       0.53496    0.69311    0.71175    1.000
    N3362    N        0.55265    0.72678    0.62803    1.000
    N3363    N        0.54652    0.73386    0.70124    1.000
    Si3364   Si       0.53811    0.62129    0.83322    1.000
    N3365    N        0.55372    0.58173    0.82142    1.000
    Si3366   Si       0.52691    0.55653    0.79934    1.000
    N3367    N        0.54367    0.51975    0.78780    1.000
    Si3368   Si       0.54904    0.64981    0.76530    1.000
    N3369    N        0.55498    0.65087    0.80771    1.000
    Si3370   Si       0.54542    0.72033    0.78293    1.000
    N3371    N        0.56917    0.71802    0.82069    1.000
    N3372    N        0.54855    0.69115    0.75251    1.000
    N3373    N        0.55552    0.75929    0.76599    1.000
    Si3374   Si       0.55718    0.54249    0.92110    1.000
    Si3375   Si       0.52833    0.59117    0.94550    1.000
    N3376    N        0.57185    0.57784    0.94252    1.000
    N3377    N        0.57248    0.53980    0.87857    1.000
    N3378    N        0.55088    0.63274    0.87259    1.000
    N3379    N        0.57106    0.66662    0.98689    1.000
    N3380    N        0.54567    0.72992    0.98410    1.000
    Si3381   Si       0.53484    0.65938    0.90151    1.000
    N3382    N        0.55756    0.69170    0.91598    1.000
    N3383    N        0.54435    0.84817    0.04047    1.000
    Si3384   Si       0.54180    0.81753    0.07067    1.000
    N3385    N        0.56748    0.78131    0.06275    1.000
    N3386    N        0.55438    0.83428    0.11299    1.000
    N3387    N        0.54301    0.96034    0.01696    1.000
    Si3388   Si       0.56165    0.93278    0.04675    1.000
    N3389    N        0.52202    0.93605    0.07081    1.000
    N3390    N        0.54573    0.86744    0.17490    1.000
    N3391    N        0.56724    0.80427    0.23991    1.000
    Si3392   Si       0.52341    0.85064    0.13976    1.000
    Si3393   Si       0.56134    0.76021    0.23870    1.000
    N3394    N        0.57556    0.92685    0.19633    1.000
    N3395    N        0.53519    0.89957    0.24636    1.000
    Si3396   Si       0.55188    0.95478    0.17377    1.000
    N3397    N        0.55599    0.94441    0.13208    1.000
    N3398    N        0.56038    0.99845    0.17253    1.000
    Si3399   Si       0.56884    0.92841    0.23911    1.000
    N3400    N        0.53415    0.85921    0.31610    1.000
    Si3401   Si       0.52374    0.77516    0.36328    1.000
    Si3402   Si       0.57402    0.84590    0.32148    1.000
    N3403    N        0.51943    0.81710    0.36675    1.000
    N3404    N        0.53408    0.96054    0.35808    1.000
    N3405    N        0.55558    0.96661    0.25303    1.000
    Si3406   Si       0.55624    0.99671    0.37576    1.000
    Si3407   Si       0.52749    0.81293    0.40978    1.000
    N3408    N        0.53598    0.77228    0.40613    1.000
    N3409    N        0.55064    0.84391    0.42657    1.000
    Si3410   Si       0.55552    0.87525    0.39563    1.000
    Si3411   Si       0.52375    0.84740    0.46133    1.000
    N3412    N        0.54381    0.98724    0.41689    1.000
    N3413    N        0.56452    0.91527    0.40935    1.000
    N3414    N        0.51990    0.99695    0.47648    1.000
    Si3415   Si       0.56125    0.98670    0.45852    1.000
    N3416    N        0.56686    0.94428    0.47100    1.000
    Si3417   Si       0.53430    0.94400    0.39808    1.000
    N3418    N        0.54361    0.80069    0.57788    1.000
    Si3419   Si       0.55077    0.85346    0.53045    1.000
    N3420    N        0.52464    0.83372    0.50352    1.000
    N3421    N        0.53248    0.87709    0.56105    1.000
    N3422    N        0.56426    0.88529    0.50305    1.000
    Si3423   Si       0.55418    0.98602    0.55257    1.000
    Si3424   Si       0.55694    0.91160    0.57240    1.000
    N3425    N        0.56050    0.98726    0.59593    1.000
    N3426    N        0.55808    0.94426    0.54330    1.000
    N3427    N        0.53790    0.91922    0.61083    1.000
    Si3428   Si       0.54713    0.92577    0.50460    1.000
    N3429    N        0.54546    0.80292    0.64615    1.000
    N3430    N        0.54207    0.80264    0.71614    1.000
    N3431    N        0.55205    0.86814    0.73794    1.000
    Si3432   Si       0.53061    0.76217    0.72972    1.000
    Si3433   Si       0.52053    0.81245    0.68232    1.000
    Si3434   Si       0.57070    0.82903    0.73353    1.000
    Si3435   Si       0.54283    0.96148    0.70103    1.000
    N3436    N        0.56997    0.89366    0.66909    1.000
    N3437    N        0.52419    0.92443    0.70989    1.000
    N3438    N        0.52325    0.99517    0.71757    1.000
    N3439    N        0.54205    0.96322    0.65710    1.000
    Si3440   Si       0.56718    0.92957    0.64203    1.000
    Si3441   Si       0.54086    0.88546    0.69972    1.000
    Si3442   Si       0.52881    0.98920    0.62613    1.000
    N3443    N        0.54530    0.84065    0.79604    1.000
    N3444    N        0.54813    0.77393    0.86812    1.000
    N3445    N        0.57756    0.85806    0.85927    1.000
    Si3446   Si       0.53863    0.88034    0.77670    1.000
    Si3447   Si       0.54703    0.97939    0.80723    1.000
    N3448    N        0.53280    0.94922    0.83507    1.000
    N3449    N        0.57256    0.89453    0.80005    1.000
    Si3450   Si       0.53906    0.85717    0.87858    1.000
    N3451    N        0.54551    0.83016    0.91405    1.000
    N3452    N        0.53906    0.79749    0.98195    1.000
    Si3453   Si       0.54994    0.83293    0.95864    1.000
    Si3454   Si       0.56522    0.79474    0.90196    1.000
    Si3455   Si       0.56899    0.76583    0.97620    1.000
    N3456    N        0.57436    0.76521    0.93222    1.000
    N3457    N        0.57469    0.93022    0.96074    1.000
    N3458    N        0.56956    0.94770    0.89648    1.000
    Si3459   Si       0.53179    0.93801    0.87589    1.000
    Si3460   Si       0.53770    0.95062    0.97437    1.000
    Si3461   Si       0.56878    0.98716    0.91669    1.000
    N3462    N        0.54203    0.98760    0.95210    1.000
    N3463    N        0.61052    0.11637    0.04773    1.000
    Si3464   Si       0.59972    0.08414    0.07764    1.000
    Si3465   Si       0.62093    0.02418    0.08449    1.000
    Si3466   Si       0.59188    0.12771    0.01041    1.000
    N3467    N        0.58660    0.04478    0.06388    1.000
    N3468    N        0.63640    0.06412    0.08979    1.000
    Si3469   Si       0.60084    0.19136    0.09427    1.000
    N3470    N        0.59858    0.19535    0.05179    1.000
    Si3471   Si       0.62970    0.19105    0.02142    1.000
    N3472    N        0.62016    0.22548    0.11517    1.000
    N3473    N        0.63073    0.16094    0.09930    1.000
    Si3474   Si       0.59857    0.01566    0.16050    1.000
    Si3475   Si       0.59232    0.05928    0.21531    1.000
    N3476    N        0.59604    0.05790    0.17119    1.000
    Si3477   Si       0.59618    0.09755    0.14760    1.000
    N3478    N        0.62196    0.08433    0.23246    1.000
    N3479    N        0.60245    0.01852    0.23077    1.000
    N3480    N        0.63804    0.10783    0.13946    1.000
    Si3481   Si       0.59266    0.23940    0.21354    1.000
    N3482    N        0.60305    0.20067    0.23202    1.000
    Si3483   Si       0.62609    0.21362    0.15612    1.000
    N3484    N        0.61652    0.17149    0.16757    1.000
    N3485    N        0.59228    0.23731    0.17033    1.000
    Si3486   Si       0.58415    0.15950    0.19350    1.000
    N3487    N        0.58140    0.13939    0.23427    1.000
    Si3488   Si       0.59741    0.06063    0.30450    1.000
    N3489    N        0.60237    0.06302    0.34639    1.000
    Si3490   Si       0.61138    0.11720    0.25854    1.000
    N3491    N        0.59008    0.10193    0.29280    1.000
    Si3492   Si       0.62128    0.03090    0.36854    1.000
    Si3493   Si       0.59079    0.13126    0.32340    1.000
    N3494    N        0.62727    0.15711    0.27305    1.000
    Si3495   Si       0.62470    0.24593    0.32677    1.000
    N3496    N        0.62697    0.20202    0.33453    1.000
    Si3497   Si       0.58364    0.17483    0.26291    1.000
    Si3498   Si       0.58370    0.19923    0.33977    1.000
    N3499    N        0.63229    0.13685    0.33502    1.000
    N3500    N        0.58004    0.24140    0.32783    1.000
    Si3501   Si       0.59485    0.09422    0.37631    1.000
    N3502    N        0.60814    0.09594    0.45796    1.000
    N3503    N        0.62757    0.03222    0.41059    1.000
    N3504    N        0.62198    0.17573    0.47193    1.000
    N3505    N        0.58285    0.21147    0.44179    1.000
    Si3506   Si       0.57870    0.16976    0.45944    1.000
    Si3507   Si       0.62772    0.20978    0.44636    1.000
    N3508    N        0.58783    0.08815    0.52349    1.000
    Si3509   Si       0.59191    0.05440    0.55393    1.000
    N3510    N        0.61976    0.09937    0.60793    1.000
    N3511    N        0.63176    0.04370    0.56847    1.000
    Si3512   Si       0.61577    0.01353    0.50824    1.000
    N3513    N        0.58068    0.01844    0.53443    1.000
    Si3514   Si       0.62355    0.08931    0.49913    1.000
    N3515    N        0.59849    0.24432    0.51906    1.000
    Si3516   Si       0.60695    0.21345    0.54907    1.000
    N3517    N        0.61345    0.22620    0.59050    1.000
    N3518    N        0.57765    0.18362    0.55249    1.000
    N3519    N        0.59499    0.02463    0.63700    1.000
    Si3520   Si       0.60807    0.04009    0.67465    1.000
    N3521    N        0.62318    0.12492    0.72845    1.000
    Si3522   Si       0.58783    0.11669    0.62807    1.000
    N3523    N        0.61387    0.21322    0.65739    1.000
    Si3524   Si       0.60688    0.22050    0.70106    1.000
    Si3525   Si       0.59430    0.14269    0.70243    1.000
    Si3526   Si       0.63387    0.17485    0.65392    1.000
    N3527    N        0.60271    0.14407    0.65906    1.000
    Si3528   Si       0.58815    0.22983    0.62411    1.000
    N3529    N        0.58524    0.18398    0.71093    1.000
    N3530    N        0.62211    0.03740    0.80733    1.000
    Si3531   Si       0.62813    0.07775    0.78788    1.000
    N3532    N        0.58545    0.07816    0.77721    1.000
    Si3533   Si       0.58183    0.03711    0.78989    1.000
    N3534    N        0.58164    0.01172    0.75576    1.000
    N3535    N        0.63616    0.12201    0.86952    1.000
    Si3536   Si       0.62307    0.14432    0.76817    1.000
    N3537    N        0.59133    0.22705    0.82449    1.000
    Si3538   Si       0.61302    0.19994    0.85065    1.000
    N3539    N        0.58657    0.16970    0.86523    1.000
    Si3540   Si       0.61734    0.25427    0.80279    1.000
    N3541    N        0.58039    0.15257    0.77475    1.000
    N3542    N        0.60808    0.02337    0.86997    1.000
    Si3543   Si       0.62630    0.02761    0.90835    1.000
    N3544    N        0.59313    0.10079    0.97594    1.000
    Si3545   Si       0.63112    0.08268    0.96135    1.000
    N3546    N        0.63227    0.06903    0.91852    1.000
    Si3547   Si       0.61060    0.01305    0.97931    1.000
    N3548    N        0.63868    0.04636    0.98386    1.000
    N3549    N        0.62901    0.16418    0.92164    1.000
    Si3550   Si       0.60621    0.14064    0.89317    1.000
    Si3551   Si       0.62940    0.25133    0.98017    1.000
    N3552    N        0.61280    0.22472    0.95073    1.000
    N3553    N        0.62938    0.22399    0.88288    1.000
    N3554    N        0.61758    0.15890    0.99497    1.000
    Si3555   Si       0.61266    0.31487    0.05204    1.000
    N3556    N        0.62999    0.32552    0.01129    1.000
    N3557    N        0.62841    0.27554    0.06225    1.000
    N3558    N        0.63422    0.34076    0.08026    1.000
    Si3559   Si       0.62106    0.33324    0.12102    1.000
    Si3560   Si       0.63869    0.26500    0.10446    1.000
    N3561    N        0.62319    0.47357    0.06411    1.000
    Si3562   Si       0.60560    0.46691    0.10258    1.000
    Si3563   Si       0.61632    0.44196    0.03373    1.000
    N3564    N        0.60122    0.42332    0.10872    1.000
    N3565    N        0.62153    0.39964    0.04532    1.000
    N3566    N        0.60659    0.29288    0.12171    1.000
    N3567    N        0.62289    0.26986    0.22427    1.000
    N3568    N        0.58790    0.35833    0.13058    1.000
    N3569    N        0.60572    0.45535    0.19247    1.000
    Si3570   Si       0.61274    0.49215    0.17304    1.000
    N3571    N        0.59621    0.49802    0.13109    1.000
    N3572    N        0.60595    0.38951    0.22809    1.000
    Si3573   Si       0.62756    0.41969    0.20300    1.000
    N3574    N        0.59945    0.31118    0.34276    1.000
    N3575    N        0.60146    0.36517    0.29425    1.000
    Si3576   Si       0.61551    0.29092    0.26101    1.000
    Si3577   Si       0.62679    0.36781    0.25895    1.000
    Si3578   Si       0.57894    0.33001    0.30935    1.000
    Si3579   Si       0.63570    0.30281    0.36375    1.000
    N3580    N        0.63487    0.26693    0.29178    1.000
    N3581    N        0.59541    0.48018    0.28287    1.000
    N3582    N        0.62569    0.47042    0.35570    1.000
    Si3583   Si       0.62588    0.47717    0.31313    1.000
    N3584    N        0.61066    0.35534    0.43598    1.000
    Si3585   Si       0.62562    0.31496    0.44061    1.000
    N3586    N        0.61500    0.30004    0.40124    1.000
    N3587    N        0.60619    0.30152    0.47790    1.000
    Si3588   Si       0.58839    0.34200    0.49143    1.000
    N3589    N        0.61077    0.50528    0.41666    1.000
    Si3590   Si       0.57585    0.49740    0.44010    1.000
    N3591    N        0.62249    0.41651    0.39709    1.000
    Si3592   Si       0.58013    0.42168    0.38951    1.000
    N3593    N        0.58295    0.45934    0.46174    1.000
    N3594    N        0.57905    0.38821    0.48687    1.000
    Si3595   Si       0.59381    0.49253    0.37736    1.000
    Si3596   Si       0.59172    0.35056    0.57425    1.000
    N3597    N        0.62977    0.35751    0.50722    1.000
    Si3598   Si       0.62877    0.26816    0.49937    1.000
    N3599    N        0.63326    0.33639    0.57203    1.000
    N3600    N        0.58655    0.38812    0.59641    1.000
    Si3601   Si       0.62494    0.40813    0.60701    1.000
    N3602    N        0.62096    0.43739    0.52189    1.000
    Si3603   Si       0.59653    0.47192    0.50489    1.000
    N3604    N        0.62114    0.50665    0.51513    1.000
    Si3605   Si       0.61965    0.39906    0.49992    1.000
    Si3606   Si       0.60464    0.28889    0.73728    1.000
    Si3607   Si       0.59604    0.28600    0.66592    1.000
    N3608    N        0.59378    0.26463    0.70393    1.000
    N3609    N        0.57924    0.32546    0.73934    1.000
    Si3610   Si       0.60668    0.46934    0.64937    1.000
    N3611    N        0.62999    0.44937    0.61883    1.000
    Si3612   Si       0.61193    0.39070    0.72219    1.000
    N3613    N        0.60431    0.43364    0.72728    1.000
    Si3614   Si       0.62649    0.47140    0.72132    1.000
    N3615    N        0.63416    0.48081    0.68023    1.000
    N3616    N        0.57664    0.49161    0.62755    1.000
    Si3617   Si       0.60280    0.31766    0.84985    1.000
    N3618    N        0.62400    0.28137    0.83894    1.000
    N3619    N        0.58778    0.34165    0.81396    1.000
    N3620    N        0.59019    0.26939    0.77345    1.000
    N3621    N        0.61185    0.37970    0.76318    1.000
    Si3622   Si       0.57687    0.35234    0.77343    1.000
    N3623    N        0.59887    0.40378    0.82729    1.000
    N3624    N        0.60362    0.47288    0.83914    1.000
    N3625    N        0.59854    0.49242    0.75212    1.000
    Si3626   Si       0.63003    0.39548    0.79917    1.000
    Si3627   Si       0.57935    0.49777    0.86630    1.000
    Si3628   Si       0.57502    0.44155    0.83107    1.000
    Si3629   Si       0.57541    0.45371    0.75269    1.000
    Si3630   Si       0.58573    0.36766    0.91475    1.000
    N3631    N        0.61492    0.33876    0.93557    1.000
    Si3632   Si       0.60593    0.34003    0.97785    1.000
    N3633    N        0.59186    0.26437    0.99745    1.000
    N3634    N        0.57865    0.35207    0.87461    1.000
    N3635    N        0.59153    0.38202    0.98733    1.000
    Si3636   Si       0.61906    0.44289    0.90231    1.000
    N3637    N        0.60756    0.40517    0.91944    1.000
    N3638    N        0.58369    0.47129    0.89967    1.000
    N3639    N        0.62594    0.44181    0.99265    1.000
    Si3640   Si       0.60418    0.41654    0.96247    1.000
    N3641    N        0.59354    0.59051    0.07590    1.000
    N3642    N        0.58971    0.52894    0.04641    1.000
    Si3643   Si       0.59278    0.57136    0.03579    1.000
    N3644    N        0.63295    0.56430    0.02072    1.000
    Si3645   Si       0.61053    0.62892    0.08481    1.000
    Si3646   Si       0.63139    0.52068    0.02858    1.000
    Si3647   Si       0.58422    0.63397    0.01111    1.000
    N3648    N        0.62254    0.69128    0.09721    1.000
    Si3649   Si       0.61340    0.69232    0.05317    1.000
    N3650    N        0.59535    0.65101    0.04997    1.000
    Si3651   Si       0.59343    0.59328    0.15057    1.000
    Si3652   Si       0.60776    0.60302    0.20817    1.000
    N3653    N        0.61692    0.57096    0.18145    1.000
    N3654    N        0.60791    0.62861    0.12923    1.000
    N3655    N        0.61285    0.75723    0.12927    1.000
    N3656    N        0.63020    0.63992    0.19876    1.000
    N3657    N        0.58059    0.74819    0.19905    1.000
    N3658    N        0.62112    0.70203    0.23087    1.000
    N3659    N        0.60152    0.69547    0.16463    1.000
    Si3660   Si       0.62382    0.65624    0.15947    1.000
    Si3661   Si       0.58488    0.70441    0.20466    1.000
    Si3662   Si       0.59929    0.71639    0.12492    1.000
    Si3663   Si       0.60569    0.59965    0.33455    1.000
    Si3664   Si       0.61984    0.51560    0.26700    1.000
    N3665    N        0.60941    0.60137    0.25042    1.000
    N3666    N        0.58479    0.53797    0.25220    1.000
    N3667    N        0.57746    0.57839    0.31101    1.000
    N3668    N        0.57696    0.62470    0.35768    1.000
    Si3669   Si       0.62211    0.70234    0.33455    1.000
    Si3670   Si       0.60277    0.71696    0.27143    1.000
    N3671    N        0.58432    0.70230    0.31221    1.000
    N3672    N        0.62476    0.74905    0.33800    1.000
    N3673    N        0.57359    0.52201    0.47587    1.000
    N3674    N        0.62320    0.58344    0.37408    1.000
    Si3675   Si       0.59639    0.61240    0.39431    1.000
    N3676    N        0.60129    0.58704    0.46978    1.000
    Si3677   Si       0.60730    0.54682    0.48960    1.000
    Si3678   Si       0.62898    0.61498    0.45094    1.000
    Si3679   Si       0.61446    0.74759    0.44562    1.000
    N3680    N        0.60146    0.70113    0.37624    1.000
    N3681    N        0.61887    0.70516    0.43964    1.000
    N3682    N        0.61711    0.63987    0.41697    1.000
    Si3683   Si       0.60443    0.67543    0.46772    1.000
    Si3684   Si       0.62941    0.68370    0.40324    1.000
    N3685    N        0.61396    0.60341    0.60391    1.000
    N3686    N        0.59760    0.56169    0.53042    1.000
    N3687    N        0.62306    0.53547    0.59242    1.000
    Si3688   Si       0.58240    0.53153    0.61223    1.000
    Si3689   Si       0.58206    0.62665    0.58748    1.000
    Si3690   Si       0.62946    0.53618    0.54829    1.000
    N3691    N        0.61829    0.70961    0.59737    1.000
    N3692    N        0.60579    0.64871    0.55847    1.000
    N3693    N        0.59121    0.69701    0.50452    1.000
    Si3694   Si       0.57865    0.70094    0.60447    1.000
    Si3695   Si       0.57774    0.67196    0.53489    1.000
    Si3696   Si       0.63394    0.74942    0.59819    1.000
    Si3697   Si       0.60826    0.58950    0.64585    1.000
    N3698    N        0.62574    0.58491    0.71234    1.000
    Si3699   Si       0.58552    0.60623    0.70756    1.000
    N3700    N        0.59601    0.62401    0.66917    1.000
    N3701    N        0.57914    0.55811    0.64765    1.000
    Si3702   Si       0.57573    0.65933    0.65889    1.000
    N3703    N        0.58212    0.63325    0.74229    1.000
    N3704    N        0.59595    0.69437    0.67134    1.000
    N3705    N        0.60471    0.53712    0.81493    1.000
    Si3706   Si       0.58694    0.56499    0.84597    1.000
    Si3707   Si       0.62317    0.57379    0.75524    1.000
    N3708    N        0.61444    0.59648    0.86173    1.000
    Si3709   Si       0.58534    0.52394    0.77785    1.000
    N3710    N        0.63573    0.61071    0.77477    1.000
    N3711    N        0.58122    0.56166    0.75219    1.000
    N3712    N        0.61673    0.67872    0.79017    1.000
    N3713    N        0.60638    0.66901    0.85739    1.000
    Si3714   Si       0.61846    0.64732    0.75983    1.000
    N3715    N        0.62342    0.74651    0.76268    1.000
    Si3716   Si       0.58626    0.67731    0.82037    1.000
    Si3717   Si       0.63143    0.70528    0.86270    1.000
    Si3718   Si       0.58064    0.75160    0.84660    1.000
    Si3719   Si       0.60600    0.60400    0.94756    1.000
    N3720    N        0.61863    0.62115    0.98731    1.000
    N3721    N        0.62968    0.50655    0.98784    1.000
    Si3722   Si       0.59512    0.63296    0.87949    1.000
    N3723    N        0.61140    0.70536    0.94138    1.000
    Si3724   Si       0.58502    0.72777    0.91609    1.000
    Si3725   Si       0.58565    0.67290    0.94636    1.000
    N3726    N        0.59615    0.63632    0.92335    1.000
    N3727    N        0.60858    0.73899    0.88026    1.000
    N3728    N        0.60787    0.83502    0.04026    1.000
    Si3729   Si       0.60292    0.79090    0.03630    1.000
    N3730    N        0.62665    0.82324    0.10602    1.000
    Si3731   Si       0.58101    0.86123    0.02041    1.000
    N3732    N        0.63792    0.77602    0.06267    1.000
    N3733    N        0.58418    0.90505    0.02496    1.000
    Si3734   Si       0.59232    0.96146    0.11451    1.000
    N3735    N        0.58776    0.95184    0.07423    1.000
    N3736    N        0.60335    0.00484    0.11863    1.000
    N3737    N        0.61879    0.97277    0.99606    1.000
    N3738    N        0.60622    0.87618    0.14302    1.000
    N3739    N        0.62606    0.80715    0.23668    1.000
    Si3740   Si       0.60679    0.76899    0.17161    1.000
    Si3741   Si       0.59654    0.82198    0.21013    1.000
    N3742    N        0.60503    0.86449    0.21108    1.000
    N3743    N        0.59700    0.81146    0.16934    1.000
    Si3744   Si       0.59426    0.83619    0.13164    1.000
    Si3745   Si       0.58485    0.88783    0.17858    1.000
    N3746    N        0.62697    0.94136    0.13245    1.000
    N3747    N        0.63361    0.99594    0.17707    1.000
    N3748    N        0.60039    0.85244    0.28340    1.000
    Si3749   Si       0.59646    0.80587    0.27279    1.000
    N3750    N        0.58176    0.86304    0.36131    1.000
    Si3751   Si       0.61882    0.87600    0.25069    1.000
    N3752    N        0.59592    0.76020    0.27727    1.000
    N3753    N        0.58280    0.80468    0.31638    1.000
    Si3754   Si       0.62360    0.86913    0.37107    1.000
    Si3755   Si       0.58747    0.76027    0.32131    1.000
    N3756    N        0.60746    0.91643    0.25846    1.000
    Si3757   Si       0.58434    0.99767    0.26460    1.000
    N3758    N        0.61804    0.97807    0.28560    1.000
    N3759    N        0.59641    0.99553    0.35740    1.000
    Si3760   Si       0.62830    0.98458    0.32778    1.000
    Si3761   Si       0.64015    0.94604    0.26595    1.000
    Si3762   Si       0.60428    0.87100    0.49170    1.000
    N3763    N        0.61462    0.83157    0.47978    1.000
    N3764    N        0.62209    0.77358    0.41424    1.000
    N3765    N        0.61397    0.96090    0.42230    1.000
    Si3766   Si       0.59288    0.92835    0.44066    1.000
    N3767    N        0.59683    0.00669    0.47013    1.000
    Si3768   Si       0.62776    0.99840    0.43934    1.000
    N3769    N        0.61543    0.89531    0.45683    1.000
    N3770    N        0.60434    0.78069    0.59481    1.000
    N3771    N        0.58736    0.83738    0.55029    1.000
    N3772    N        0.59216    0.77144    0.52460    1.000
    Si3773   Si       0.61769    0.86689    0.56238    1.000
    Si3774   Si       0.62066    0.79343    0.50023    1.000
    Si3775   Si       0.58096    0.79458    0.56082    1.000
    N3776    N        0.63210    0.88094    0.52155    1.000
    N3777    N        0.59860    0.90248    0.58128    1.000
    N3778    N        0.62858    0.97275    0.58750    1.000
    Si3779   Si       0.63139    0.93073    0.59415    1.000
    Si3780   Si       0.59770    0.98675    0.61624    1.000
    Si3781   Si       0.60161    0.86409    0.66899    1.000
    N3782    N        0.60795    0.83917    0.63550    1.000
    N3783    N        0.59929    0.83779    0.70249    1.000
    Si3784   Si       0.58818    0.79875    0.63273    1.000
    N3785    N        0.59898    0.76683    0.66084    1.000
    N3786    N        0.60574    0.95351    0.64415    1.000
    N3787    N        0.63596    0.00468    0.68271    1.000
    N3788    N        0.58380    0.96514    0.71115    1.000
    Si3789   Si       0.61771    0.96504    0.68491    1.000
    Si3790   Si       0.59356    0.77260    0.77775    1.000
    N3791    N        0.59885    0.81220    0.76291    1.000
    N3792    N        0.62409    0.84929    0.81109    1.000
    N3793    N        0.60227    0.77776    0.82001    1.000
    Si3794   Si       0.58145    0.85369    0.81611    1.000
    Si3795   Si       0.63719    0.82331    0.77881    1.000
    Si3796   Si       0.60447    0.92322    0.79585    1.000
    N3797    N        0.61901    0.93073    0.75696    1.000
    Si3798   Si       0.59548    0.96945    0.75278    1.000
    N3799    N        0.58423    0.96297    0.79449    1.000
    Si3800   Si       0.61394    0.85342    0.88506    1.000
    Si3801   Si       0.62052    0.86477    0.95653    1.000
    N3802    N        0.60584    0.80954    0.89229    1.000
    N3803    N        0.58341    0.85456    0.97652    1.000
    Si3804   Si       0.63142    0.77451    0.89378    1.000
    N3805    N        0.60759    0.88048    0.91816    1.000
    N3806    N        0.60471    0.78273    0.99391    1.000
    Si3807   Si       0.59759    0.92422    0.92091    1.000
    N3808    N        0.63294    0.94534    0.91057    1.000
    N3809    N        0.59960    0.00935    0.93640    1.000
    Si3810   Si       0.60513    0.92987    0.99318    1.000
    N3811    N        0.63563    0.90130    0.97638    1.000
    N3812    N        0.67711    0.11511    0.08080    1.000
    Si3813   Si       0.66287    0.08828    0.11042    1.000
    N3814    N        0.66338    0.17001    0.04037    1.000
    N3815    N        0.67741    0.23665    0.07703    1.000
    Si3816   Si       0.68940    0.19962    0.05920    1.000
    Si3817   Si       0.64390    0.13856    0.06409    1.000
    N3818    N        0.64716    0.22820    0.01271    1.000
    Si3819   Si       0.65915    0.25653    0.04234    1.000
    N3820    N        0.67160    0.03502    0.22869    1.000
    N3821    N        0.69376    0.10887    0.18882    1.000
    N3822    N        0.69776    0.07041    0.12905    1.000
    Si3823   Si       0.69669    0.12693    0.22949    1.000
    Si3824   Si       0.68373    0.18824    0.18839    1.000
    N3825    N        0.67290    0.16505    0.22179    1.000
    N3826    N        0.68945    0.24927    0.23807    1.000
    N3827    N        0.65930    0.22457    0.18312    1.000
    Si3828   Si       0.64278    0.15038    0.14058    1.000
    N3829    N        0.68135    0.17160    0.14773    1.000
    Si3830   Si       0.67215    0.04965    0.31897    1.000
    Si3831   Si       0.66037    0.11780    0.36268    1.000
    N3832    N        0.68234    0.10220    0.26352    1.000
    N3833    N        0.67889    0.08970    0.33442    1.000
    N3834    N        0.65741    0.01571    0.34578    1.000
    Si3835   Si       0.65710    0.06721    0.25407    1.000
    N3836    N        0.63960    0.05291    0.29104    1.000
    Si3837   Si       0.69571    0.11510    0.30318    1.000
    N3838    N        0.66205    0.20764    0.27991    1.000
    Si3839   Si       0.64753    0.17233    0.31025    1.000
    Si3840   Si       0.67251    0.25068    0.27858    1.000
    N3841    N        0.68956    0.15708    0.31370    1.000
    Si3842   Si       0.64458    0.18684    0.24492    1.000
    N3843    N        0.67431    0.06169    0.45063    1.000
    Si3844   Si       0.64412    0.09074    0.43488    1.000
    N3845    N        0.66524    0.12877    0.44346    1.000
    N3846    N        0.63489    0.09835    0.39140    1.000
    Si3847   Si       0.68402    0.04990    0.49205    1.000
    N3848    N        0.69201    0.17742    0.48489    1.000
    Si3849   Si       0.67070    0.23171    0.38378    1.000
    N3850    N        0.68892    0.14668    0.37828    1.000
    N3851    N        0.64731    0.20605    0.41051    1.000
    Si3852   Si       0.65658    0.15313    0.47827    1.000
    N3853    N        0.64717    0.24214    0.46993    1.000
    N3854    N        0.67767    0.10436    0.57841    1.000
    N3855    N        0.65022    0.12180    0.50807    1.000
    Si3856   Si       0.64924    0.07337    0.59573    1.000
    Si3857   Si       0.68502    0.11493    0.53643    1.000
    N3858    N        0.64194    0.04880    0.50436    1.000
    Si3859   Si       0.68142    0.13732    0.60860    1.000
    Si3860   Si       0.65248    0.20652    0.59185    1.000
    N3861    N        0.65107    0.19596    0.54946    1.000
    N3862    N        0.68090    0.23884    0.59404    1.000
    Si3863   Si       0.68847    0.19131    0.52596    1.000
    N3864    N        0.65323    0.17089    0.61534    1.000
    Si3865   Si       0.65362    0.09180    0.72270    1.000
    N3866    N        0.66174    0.04642    0.62901    1.000
    Si3867   Si       0.67836    0.07300    0.66435    1.000
    N3868    N        0.68527    0.11460    0.64640    1.000
    Si3869   Si       0.66834    0.01380    0.65585    1.000
    N3870    N        0.69143    0.10480    0.70862    1.000
    N3871    N        0.64020    0.07070    0.68544    1.000
    N3872    N        0.69970    0.03732    0.67672    1.000
    Si3873   Si       0.66526    0.18846    0.72391    1.000
    N3874    N        0.66391    0.16584    0.68772    1.000
    Si3875   Si       0.69729    0.13879    0.68219    1.000
    N3876    N        0.64251    0.22614    0.72234    1.000
    N3877    N        0.66351    0.05263    0.86004    1.000
    N3878    N        0.65535    0.06615    0.75688    1.000
    Si3879   Si       0.64028    0.02007    0.84060    1.000
    Si3880   Si       0.69099    0.04567    0.76794    1.000
    N3881    N        0.69193    0.02840    0.80662    1.000
    N3882    N        0.63660    0.11956    0.79998    1.000
    Si3883   Si       0.65203    0.13969    0.83501    1.000
    N3884    N        0.64367    0.18147    0.82683    1.000
    N3885    N        0.65219    0.17506    0.76200    1.000
    Si3886   Si       0.66419    0.20197    0.79413    1.000
    N3887    N        0.65663    0.24644    0.78762    1.000
    N3888    N        0.68545    0.24732    0.84943    1.000
    N3889    N        0.69628    0.13995    0.84069    1.000
    N3890    N        0.69536    0.09984    0.89738    1.000
    N3891    N        0.66048    0.11270    0.95948    1.000
    Si3892   Si       0.68178    0.04042    0.98695    1.000
    Si3893   Si       0.65410    0.08621    0.88594    1.000
    N3894    N        0.69575    0.05241    0.94747    1.000
    Si3895   Si       0.63953    0.20629    0.92142    1.000
    N3896    N        0.67739    0.17852    0.97182    1.000
    Si3897   Si       0.64351    0.15181    0.96032    1.000
    N3898    N        0.68120    0.22384    0.92744    1.000
    N3899    N        0.68721    0.28744    0.02988    1.000
    Si3900   Si       0.65148    0.37603    0.06320    1.000
    N3901    N        0.69227    0.37869    0.04280    1.000
    Si3902   Si       0.66941    0.30975    0.99840    1.000
    N3903    N        0.66784    0.40108    0.09542    1.000
    Si3904   Si       0.66382    0.48648    0.07971    1.000
    N3905    N        0.69352    0.45675    0.06414    1.000
    N3906    N        0.64940    0.46546    0.11948    1.000
    N3907    N        0.67391    0.27390    0.12823    1.000
    Si3908   Si       0.67420    0.32802    0.22828    1.000
    Si3909   Si       0.68568    0.30808    0.15057    1.000
    N3910    N        0.68225    0.29957    0.19362    1.000
    N3911    N        0.67546    0.36743    0.20961    1.000
    N3912    N        0.65636    0.33962    0.14457    1.000
    Si3913   Si       0.67161    0.37356    0.16629    1.000
    Si3914   Si       0.66189    0.26019    0.20564    1.000
    Si3915   Si       0.68553    0.40203    0.23471    1.000
    Si3916   Si       0.64350    0.42138    0.12335    1.000
    N3917    N        0.64527    0.40760    0.16453    1.000
    N3918    N        0.66107    0.43841    0.22732    1.000
    Si3919   Si       0.67883    0.48912    0.14265    1.000
    N3920    N        0.65638    0.51009    0.24536    1.000
    N3921    N        0.66843    0.32946    0.35462    1.000
    N3922    N        0.64911    0.26148    0.35954    1.000
    N3923    N        0.64055    0.32622    0.25394    1.000
    Si3924   Si       0.67730    0.37057    0.36618    1.000
    N3925    N        0.66383    0.38862    0.26990    1.000
    Si3926   Si       0.67233    0.47030    0.25465    1.000
    N3927    N        0.66099    0.40410    0.34418    1.000
    Si3928   Si       0.67153    0.41588    0.30393    1.000
    N3929    N        0.65768    0.45422    0.29280    1.000
    N3930    N        0.66656    0.30471    0.44753    1.000
    Si3931   Si       0.68157    0.26273    0.45333    1.000
    N3932    N        0.67661    0.37374    0.41114    1.000
    Si3933   Si       0.63810    0.38749    0.42498    1.000
    Si3934   Si       0.67065    0.43835    0.47202    1.000
    N3935    N        0.64154    0.40934    0.46201    1.000
    Si3936   Si       0.65252    0.43886    0.37072    1.000
    N3937    N        0.68710    0.45448    0.39195    1.000
    N3938    N        0.65780    0.47824    0.46293    1.000
    N3939    N        0.65359    0.28509    0.52983    1.000
    Si3940   Si       0.66502    0.36327    0.58857    1.000
    Si3941   Si       0.65088    0.32935    0.53205    1.000
    Si3942   Si       0.68435    0.26096    0.55387    1.000
    N3943    N        0.69031    0.34815    0.53760    1.000
    N3944    N        0.68475    0.42341    0.51261    1.000
    N3945    N        0.65272    0.40326    0.57109    1.000
    N3946    N        0.67071    0.47287    0.56711    1.000
    Si3947   Si       0.65650    0.43829    0.54488    1.000
    Si3948   Si       0.66775    0.46765    0.60972    1.000
    Si3949   Si       0.66442    0.50873    0.50028    1.000
    N3950    N        0.68753    0.33220    0.67424    1.000
    N3951    N        0.64723    0.29804    0.73180    1.000
    Si3952   Si       0.66512    0.36994    0.66742    1.000
    Si3953   Si       0.66689    0.33429    0.71784    1.000
    Si3954   Si       0.67765    0.28883    0.66682    1.000
    N3955    N        0.64321    0.36681    0.70293    1.000
    N3956    N        0.64814    0.37724    0.63021    1.000
    N3957    N        0.63739    0.28926    0.65581    1.000
    Si3958   Si       0.67194    0.25955    0.73651    1.000
    N3959    N        0.69361    0.26381    0.69805    1.000
    Si3960   Si       0.67255    0.49741    0.67316    1.000
    N3961    N        0.66533    0.47843    0.74188    1.000
    N3962    N        0.67013    0.50744    0.63102    1.000
    Si3963   Si       0.67543    0.33836    0.83520    1.000
    N3964    N        0.66316    0.36708    0.80322    1.000
    N3965    N        0.64240    0.33614    0.86238    1.000
    N3966    N        0.68989    0.30631    0.81253    1.000
    Si3967   Si       0.64865    0.26075    0.86792    1.000
    Si3968   Si       0.69501    0.26421    0.80655    1.000
    Si3969   Si       0.64463    0.45785    0.83294    1.000
    N3970    N        0.65195    0.43285    0.79729    1.000
    N3971    N        0.66583    0.49610    0.82253    1.000
    Si3972   Si       0.68075    0.44692    0.76764    1.000
    N3973    N        0.65539    0.28473    0.90340    1.000
    N3974    N        0.68285    0.34615    0.91897    1.000
    Si3975   Si       0.64498    0.32813    0.90519    1.000
    N3976    N        0.65903    0.27833    0.96896    1.000
    Si3977   Si       0.68102    0.26811    0.93359    1.000
    N3978    N        0.65197    0.44499    0.87286    1.000
    N3979    N        0.69094    0.47206    0.99078    1.000
    Si3980   Si       0.64811    0.47235    0.97276    1.000
    Si3981   Si       0.68082    0.44720    0.90569    1.000
    N3982    N        0.64959    0.45592    0.93421    1.000
    N3983    N        0.68360    0.60541    0.01256    1.000
    Si3984   Si       0.68513    0.61554    0.05540    1.000
    N3985    N        0.67058    0.51126    0.04492    1.000
    N3986    N        0.68927    0.51419    0.10917    1.000
    N3987    N        0.65336    0.63526    0.07942    1.000
    Si3988   Si       0.66186    0.67020    0.10345    1.000
    N3989    N        0.65160    0.70270    0.03575    1.000
    Si3990   Si       0.67307    0.72956    0.00393    1.000
    Si3991   Si       0.69176    0.69082    0.05143    1.000
    N3992    N        0.69441    0.69585    0.09325    1.000
    N3993    N        0.66229    0.57156    0.13196    1.000
    Si3994   Si       0.65454    0.55476    0.17074    1.000
    Si3995   Si       0.68453    0.54450    0.23560    1.000
    N3996    N        0.68420    0.56764    0.19781    1.000
    N3997    N        0.65225    0.51134    0.17038    1.000
    Si3998   Si       0.64811    0.66559    0.22854    1.000
    N3999    N        0.67503    0.69044    0.20673    1.000
    N4000    N        0.66465    0.66163    0.14481    1.000
    Si4001   Si       0.65359    0.72851    0.21530    1.000
    Si4002   Si       0.67331    0.54193    0.30649    1.000
    N4003    N        0.67049    0.56783    0.27121    1.000
    N4004    N        0.67976    0.55562    0.34723    1.000
    Si4005   Si       0.64824    0.60568    0.27256    1.000
    N4006    N        0.64118    0.60988    0.31441    1.000
    N4007    N        0.63790    0.51922    0.30764    1.000
    Si4008   Si       0.66899    0.63407    0.33595    1.000
    N4009    N        0.66768    0.64229    0.25925    1.000
    Si4010   Si       0.67724    0.72474    0.28442    1.000
    N4011    N        0.64484    0.66715    0.34750    1.000
    N4012    N        0.64061    0.70555    0.29354    1.000
    N4013    N        0.66785    0.75039    0.25073    1.000
    N4014    N        0.68979    0.74922    0.31743    1.000
    N4015    N        0.68963    0.61675    0.37191    1.000
    Si4016   Si       0.68202    0.56590    0.45417    1.000
    N4017    N        0.67380    0.53577    0.41159    1.000
    N4018    N        0.66119    0.59593    0.43012    1.000
    Si4019   Si       0.66449    0.57303    0.38473    1.000
    N4020    N        0.64771    0.53938    0.46967    1.000
    Si4021   Si       0.64854    0.51147    0.43514    1.000
    N4022    N        0.67201    0.67461    0.41106    1.000
    N4023    N        0.63751    0.64705    0.47994    1.000
    Si4024   Si       0.68141    0.63246    0.41310    1.000
    N4025    N        0.66554    0.61430    0.54243    1.000
    N4026    N        0.68006    0.57632    0.59300    1.000
    Si4027   Si       0.65330    0.61148    0.58435    1.000
    N4028    N        0.67242    0.53678    0.53651    1.000
    Si4029   Si       0.69093    0.57831    0.53192    1.000
    Si4030   Si       0.63654    0.67531    0.57453    1.000
    N4031    N        0.65987    0.68562    0.53917    1.000
    N4032    N        0.66376    0.65337    0.59924    1.000
    Si4033   Si       0.66457    0.64936    0.51299    1.000
    Si4034   Si       0.68399    0.72104    0.54014    1.000
    N4035    N        0.66275    0.75101    0.56471    1.000
    Si4036   Si       0.65854    0.54638    0.61634    1.000
    Si4037   Si       0.66096    0.57512    0.69133    1.000
    N4038    N        0.67372    0.53317    0.69840    1.000
    N4039    N        0.64808    0.57356    0.65023    1.000
    N4040    N        0.69193    0.59901    0.71051    1.000
    Si4041   Si       0.68196    0.51873    0.73960    1.000
    Si4042   Si       0.63459    0.68871    0.69186    1.000
    N4043    N        0.66028    0.66316    0.66718    1.000
    N4044    N        0.64368    0.66920    0.73109    1.000
    Si4045   Si       0.69105    0.63789    0.68959    1.000
    N4046    N        0.66115    0.75727    0.63294    1.000
    Si4047   Si       0.68931    0.66564    0.63297    1.000
    N4048    N        0.64811    0.72950    0.69734    1.000
    Si4049   Si       0.65932    0.74750    0.73600    1.000
    Si4050   Si       0.67291    0.62108    0.79349    1.000
    N4051    N        0.66912    0.56345    0.83015    1.000
    Si4052   Si       0.65939    0.59570    0.85866    1.000
    Si4053   Si       0.64735    0.53340    0.80953    1.000
    N4054    N        0.65233    0.54063    0.76590    1.000
    N4055    N        0.67750    0.62942    0.83556    1.000
    N4056    N        0.67890    0.71620    0.76364    1.000
    N4057    N        0.64569    0.72551    0.82612    1.000
    Si4058   Si       0.64113    0.71448    0.78503    1.000
    Si4059   Si       0.68273    0.67751    0.74744    1.000
    N4060    N        0.69052    0.59433    0.88979    1.000
    N4061    N        0.64438    0.58163    0.94852    1.000
    Si4062   Si       0.67744    0.56973    0.92508    1.000
    N4063    N        0.67673    0.53160    0.90621    1.000
    Si4064   Si       0.64902    0.59043    0.99119    1.000
    N4065    N        0.67453    0.70789    0.96781    1.000
    Si4066   Si       0.65383    0.71953    0.93088    1.000
    N4067    N        0.65666    0.69286    0.89524    1.000
    N4068    N        0.67466    0.83381    0.05379    1.000
    Si4069   Si       0.67462    0.79057    0.04261    1.000
    N4070    N        0.66967    0.77229    0.00208    1.000
    Si4071   Si       0.64015    0.78309    0.10763    1.000
    Si4072   Si       0.63620    0.84647    0.07142    1.000
    N4073    N        0.69037    0.87350    0.99751    1.000
    N4074    N        0.64240    0.88999    0.08151    1.000
    N4075    N        0.68464    0.94367    0.09558    1.000
    Si4076   Si       0.67485    0.91410    0.06478    1.000
    N4077    N        0.66258    0.93581    0.02843    1.000
    Si4078   Si       0.68024    0.98607    0.08505    1.000
    N4079    N        0.64574    0.99628    0.06033    1.000
    Si4080   Si       0.65555    0.97787    0.02164    1.000
    N4081    N        0.68643    0.00016    0.00195    1.000
    N4082    N        0.67943    0.78024    0.12679    1.000
    Si4083   Si       0.68103    0.84572    0.21605    1.000
    N4084    N        0.66788    0.82692    0.17745    1.000
    Si4085   Si       0.67792    0.78445    0.17023    1.000
    N4086    N        0.64617    0.75720    0.18456    1.000
    N4087    N        0.66403    0.87134    0.24727    1.000
    N4088    N        0.67542    0.88808    0.13810    1.000
    N4089    N        0.67455    0.00156    0.12394    1.000
    Si4090   Si       0.63622    0.89977    0.12365    1.000
    Si4091   Si       0.65402    0.97031    0.14687    1.000
    N4092    N        0.65827    0.96720    0.23226    1.000
    N4093    N        0.68603    0.94877    0.16709    1.000
    Si4094   Si       0.69218    0.95564    0.21072    1.000
    Si4095   Si       0.64234    0.00418    0.21850    1.000
    Si4096   Si       0.66527    0.83609    0.32511    1.000
    Si4097   Si       0.65719    0.77422    0.32753    1.000
    N4098    N        0.64864    0.87375    0.33557    1.000
    N4099    N        0.65287    0.80372    0.29695    1.000
    N4100    N        0.66356    0.80469    0.35790    1.000
    Si4101   Si       0.66142    0.79282    0.25599    1.000
    Si4102   Si       0.66734    0.91231    0.32968    1.000
    N4103    N        0.66838    0.92435    0.28820    1.000
    N4104    N        0.64366    0.94618    0.34383    1.000
    Si4105   Si       0.69270    0.89944    0.26354    1.000
    N4106    N        0.67696    0.86215    0.45489    1.000
    Si4107   Si       0.65024    0.80427    0.40072    1.000
    Si4108   Si       0.68421    0.76498    0.47698    1.000
    N4109    N        0.64013    0.75976    0.47797    1.000
    N4110    N        0.63671    0.84465    0.40468    1.000
    Si4111   Si       0.66919    0.84038    0.49380    1.000
    N4112    N        0.63278    0.90422    0.39390    1.000
    Si4113   Si       0.64641    0.88179    0.42948    1.000
    Si4114   Si       0.68902    0.96247    0.43350    1.000
    N4115    N        0.67985    0.92071    0.43772    1.000
    N4116    N        0.66540    0.98806    0.45840    1.000
    Si4117   Si       0.63864    0.94799    0.38764    1.000
    N4118    N        0.67475    0.97478    0.39302    1.000
    N4119    N        0.65191    0.85306    0.58448    1.000
    N4120    N        0.65438    0.80956    0.52294    1.000
    Si4121   Si       0.68182    0.78441    0.54346    1.000
    Si4122   Si       0.69278    0.84022    0.58870    1.000
    Si4123   Si       0.66811    0.90471    0.52868    1.000
    N4124    N        0.66405    0.91998    0.56734    1.000
    N4125    N        0.64593    0.98794    0.52499    1.000
    Si4126   Si       0.65052    0.00241    0.56582    1.000
    Si4127   Si       0.67804    0.97662    0.49746    1.000
    Si4128   Si       0.69106    0.90622    0.59764    1.000
    N4129    N        0.69144    0.99647    0.57509    1.000
    N4130    N        0.68509    0.93366    0.50155    1.000
    Si4131   Si       0.64145    0.83561    0.70644    1.000
    Si4132   Si       0.65071    0.85918    0.63036    1.000
    N4133    N        0.65579    0.79862    0.69026    1.000
    N4134    N        0.64645    0.86902    0.67742    1.000
    Si4135   Si       0.64003    0.76283    0.67125    1.000
    N4136    N        0.69070    0.84162    0.63222    1.000
    N4137    N        0.68171    0.97619    0.64254    1.000
    N4138    N        0.65259    0.90647    0.62648    1.000
    Si4139   Si       0.65715    0.92879    0.74037    1.000
    N4140    N        0.68958    0.90043    0.74177    1.000
    Si4141   Si       0.66394    0.90957    0.66915    1.000
    N4142    N        0.64886    0.93704    0.69833    1.000
    N4143    N        0.66729    0.79372    0.79231    1.000
    Si4144   Si       0.64668    0.76972    0.82352    1.000
    N4145    N        0.66023    0.78373    0.86263    1.000
    N4146    N        0.68847    0.87259    0.80459    1.000
    Si4147   Si       0.69099    0.86300    0.76260    1.000
    Si4148   Si       0.65306    0.87649    0.82855    1.000
    N4149    N        0.65496    0.86521    0.87003    1.000
    N4150    N        0.65719    0.84266    0.74634    1.000
    N4151    N        0.67329    0.96103    0.77042    1.000
    N4152    N        0.65699    0.98053    0.84510    1.000
    Si4153   Si       0.66763    0.95201    0.81395    1.000
    N4154    N        0.63925    0.91937    0.82128    1.000
    N4155    N        0.64672    0.76430    0.93293    1.000
    Si4156   Si       0.68791    0.85193    0.95773    1.000
    N4157    N        0.64810    0.83247    0.95736    1.000
    Si4158   Si       0.69342    0.86527    0.88889    1.000
    Si4159   Si       0.64305    0.78981    0.96923    1.000
    N4160    N        0.69902    0.88261    0.92866    1.000
    Si4161   Si       0.66259    0.96780    0.88652    1.000
    Si4162   Si       0.67302    0.91263    0.99322    1.000
    N4163    N        0.66277    0.00448    0.90936    1.000
    N4164    N        0.71063    0.06041    0.01334    1.000
    Si4165   Si       0.72675    0.02050    0.03026    1.000
    Si4166   Si       0.73244    0.09743    0.00439    1.000
    N4167    N        0.71806    0.13302    0.02588    1.000
    Si4168   Si       0.71508    0.13256    0.06952    1.000
    N4169    N        0.75325    0.12011    0.08512    1.000
    N4170    N        0.71034    0.17359    0.08523    1.000
    N4171    N        0.71553    0.21285    0.02700    1.000
    Si4172   Si       0.74883    0.22216    0.99739    1.000
    Si4173   Si       0.70605    0.25537    0.10528    1.000
    Si4174   Si       0.70153    0.17087    0.00786    1.000
    N4175    N        0.75606    0.26292    0.01601    1.000
    N4176    N        0.74160    0.01110    0.12295    1.000
    Si4177   Si       0.71595    0.02597    0.21642    1.000
    Si4178   Si       0.71862    0.08464    0.16565    1.000
    N4179    N        0.71722    0.04171    0.17744    1.000
    Si4180   Si       0.70472    0.02919    0.13725    1.000
    N4181    N        0.74107    0.11839    0.23422    1.000
    N4182    N        0.74928    0.04025    0.23843    1.000
    N4183    N        0.72846    0.22736    0.12933    1.000
    Si4184   Si       0.71632    0.18665    0.12582    1.000
    N4185    N        0.75064    0.16534    0.14236    1.000
    Si4186   Si       0.72668    0.23470    0.22355    1.000
    N4187    N        0.72652    0.19828    0.19869    1.000
    N4188    N        0.73804    0.11337    0.30507    1.000
    N4189    N        0.70599    0.04221    0.29061    1.000
    Si4190   Si       0.75021    0.03952    0.28600    1.000
    Si4191   Si       0.70736    0.17345    0.34979    1.000
    Si4192   Si       0.72046    0.24756    0.33472    1.000
    N4193    N        0.69907    0.21626    0.35604    1.000
    N4194    N        0.75064    0.16711    0.34390    1.000
    Si4195   Si       0.70889    0.05662    0.42633    1.000
    N4196    N        0.72056    0.09763    0.42193    1.000
    N4197    N        0.71362    0.03931    0.38693    1.000
    N4198    N        0.73986    0.04152    0.45150    1.000
    N4199    N        0.69754    0.25363    0.41208    1.000
    N4200    N        0.73589    0.15863    0.42896    1.000
    N4201    N        0.74331    0.22114    0.46866    1.000
    Si4202   Si       0.69912    0.13634    0.42046    1.000
    Si4203   Si       0.73408    0.17832    0.46887    1.000
    N4204    N        0.74087    0.04121    0.56480    1.000
    N4205    N        0.70693    0.08001    0.51587    1.000
    Si4206   Si       0.74302    0.07388    0.53813    1.000
    N4207    N        0.70770    0.01208    0.50457    1.000
    N4208    N        0.75309    0.11139    0.55917    1.000
    Si4209   Si       0.73791    0.15118    0.56935    1.000
    N4210    N        0.71886    0.15931    0.60770    1.000
    N4211    N        0.70324    0.23057    0.52842    1.000
    Si4212   Si       0.73408    0.24745    0.50210    1.000
    N4213    N        0.70364    0.15335    0.54186    1.000
    N4214    N        0.74974    0.23746    0.59841    1.000
    Si4215   Si       0.71301    0.24468    0.62237    1.000
    Si4216   Si       0.72882    0.09357    0.72755    1.000
    Si4217   Si       0.72947    0.02496    0.70437    1.000
    N4218    N        0.70850    0.01618    0.74076    1.000
    N4219    N        0.75365    0.06105    0.71212    1.000
    N4220    N        0.72013    0.21477    0.65407    1.000
    N4221    N        0.70665    0.20554    0.72673    1.000
    Si4222   Si       0.72316    0.23056    0.69497    1.000
    Si4223   Si       0.73871    0.17662    0.64145    1.000
    N4224    N        0.73750    0.14939    0.67374    1.000
    N4225    N        0.72076    0.07921    0.76823    1.000
    N4226    N        0.72525    0.08037    0.83518    1.000
    Si4227   Si       0.74520    0.09439    0.79914    1.000
    Si4228   Si       0.70253    0.04566    0.84479    1.000
    Si4229   Si       0.72082    0.11184    0.86422    1.000
    Si4230   Si       0.72322    0.16973    0.82048    1.000
    Si4231   Si       0.72729    0.21810    0.76252    1.000
    N4232    N        0.73587    0.19244    0.85456    1.000
    Si4233   Si       0.72723    0.23557    0.85562    1.000
    N4234    N        0.70587    0.20156    0.79545    1.000
    N4235    N        0.74390    0.13920    0.79524    1.000
    N4236    N        0.73958    0.26043    0.82217    1.000
    N4237    N        0.72312    0.02918    0.88035    1.000
    N4238    N        0.73116    0.11101    0.96176    1.000
    Si4239   Si       0.70167    0.02188    0.91726    1.000
    Si4240   Si       0.69766    0.09723    0.93964    1.000
    N4241    N        0.73736    0.17908    0.98130    1.000
    N4242    N        0.73924    0.23298    0.95633    1.000
    Si4243   Si       0.75217    0.14895    0.95562    1.000
    N4244    N        0.75217    0.25066    0.88786    1.000
    N4245    N        0.73023    0.16893    0.92141    1.000
    Si4246   Si       0.71014    0.19862    0.94810    1.000
    Si4247   Si       0.72820    0.28524    0.03992    1.000
    N4248    N        0.73469    0.27806    0.08228    1.000
    Si4249   Si       0.72056    0.35601    0.01743    1.000
    N4250    N        0.74422    0.32781    0.03792    1.000
    N4251    N        0.74855    0.37626    0.99133    1.000
    Si4252   Si       0.70283    0.41365    0.06525    1.000
    N4253    N        0.73507    0.41186    0.09633    1.000
    Si4254   Si       0.70565    0.48245    0.03170    1.000
    N4255    N        0.74275    0.43039    0.03464    1.000
    N4256    N        0.74226    0.50360    0.03608    1.000
    N4257    N        0.73766    0.26358    0.19338    1.000
    Si4258   Si       0.72657    0.30470    0.20458    1.000
    N4259    N        0.72662    0.31968    0.13730    1.000
    Si4260   Si       0.74564    0.35329    0.15896    1.000
    N4261    N        0.71455    0.32246    0.24422    1.000
    N4262    N        0.71418    0.38340    0.15679    1.000
    N4263    N        0.72492    0.41887    0.22937    1.000
    Si4264   Si       0.72682    0.41975    0.13839    1.000
    N4265    N        0.71144    0.46085    0.14770    1.000
    N4266    N        0.71881    0.34299    0.31294    1.000
    N4267    N        0.73130    0.28475    0.35627    1.000
    Si4268   Si       0.74264    0.32939    0.27808    1.000
    N4269    N        0.72081    0.37464    0.36696    1.000
    Si4270   Si       0.70065    0.30752    0.33178    1.000
    Si4271   Si       0.73459    0.38223    0.32604    1.000
    N4272    N        0.69969    0.27124    0.30484    1.000
    Si4273   Si       0.73572    0.43543    0.26925    1.000
    N4274    N        0.71444    0.41361    0.30158    1.000
    N4275    N        0.71501    0.47413    0.26338    1.000
    Si4276   Si       0.73671    0.50897    0.27154    1.000
    Si4277   Si       0.73100    0.27726    0.39974    1.000
    Si4278   Si       0.70690    0.31733    0.45567    1.000
    N4279    N        0.72835    0.31613    0.41620    1.000
    N4280    N        0.70505    0.35675    0.47170    1.000
    N4281    N        0.71532    0.27964    0.47674    1.000
    Si4282   Si       0.74490    0.34873    0.39300    1.000
    N4283    N        0.75108    0.37678    0.42736    1.000
    Si4284   Si       0.73877    0.49566    0.48002    1.000
    Si4285   Si       0.72172    0.45378    0.41804    1.000
    N4286    N        0.70638    0.42537    0.44818    1.000
    N4287    N        0.72407    0.49246    0.43648    1.000
    Si4288   Si       0.70922    0.38513    0.43715    1.000
    Si4289   Si       0.72002    0.33171    0.56434    1.000
    N4290    N        0.71682    0.28909    0.56368    1.000
    N4291    N        0.70085    0.34374    0.60213    1.000
    Si4292   Si       0.70219    0.38084    0.50993    1.000
    N4293    N        0.73221    0.45991    0.55259    1.000
    Si4294   Si       0.73477    0.44115    0.59074    1.000
    Si4295   Si       0.72551    0.44380    0.51304    1.000
    N4296    N        0.74213    0.40100    0.51467    1.000
    Si4297   Si       0.70418    0.49791    0.55267    1.000
    N4298    N        0.70442    0.49002    0.50672    1.000
    N4299    N        0.69895    0.43825    0.61700    1.000
    Si4300   Si       0.71680    0.32864    0.63985    1.000
    N4301    N        0.70822    0.28472    0.63604    1.000
    N4302    N        0.75213    0.35030    0.64795    1.000
    N4303    N        0.69905    0.35062    0.73923    1.000
    Si4304   Si       0.74944    0.28033    0.73981    1.000
    N4305    N        0.70783    0.47028    0.67546    1.000
    Si4306   Si       0.71752    0.43190    0.65587    1.000
    Si4307   Si       0.74098    0.49655    0.68717    1.000
    N4308    N        0.69638    0.40005    0.67677    1.000
    Si4309   Si       0.71148    0.38818    0.71614    1.000
    N4310    N        0.72553    0.50839    0.72592    1.000
    N4311    N        0.70817    0.36142    0.85536    1.000
    Si4312   Si       0.74167    0.36986    0.82984    1.000
    Si4313   Si       0.69590    0.37542    0.77637    1.000
    N4314    N        0.71246    0.26149    0.75894    1.000
    Si4315   Si       0.74970    0.43121    0.78885    1.000
    N4316    N        0.73291    0.39198    0.79519    1.000
    N4317    N        0.72417    0.49077    0.85497    1.000
    N4318    N        0.71601    0.45879    0.78985    1.000
    Si4319   Si       0.70679    0.49309    0.81482    1.000
    N4320    N        0.68967    0.41079    0.74652    1.000
    Si4321   Si       0.75186    0.26429    0.93015    1.000
    Si4322   Si       0.71079    0.37245    0.89715    1.000
    Si4323   Si       0.71649    0.33169    0.94554    1.000
    N4324    N        0.71874    0.29002    0.93766    1.000
    N4325    N        0.74308    0.35441    0.91959    1.000
    N4326    N        0.69716    0.33971    0.98454    1.000
    Si4327   Si       0.74075    0.44098    0.91952    1.000
    N4328    N        0.70969    0.41478    0.90339    1.000
    N4329    N        0.71088    0.47594    0.91936    1.000
    Si4330   Si       0.72057    0.48072    0.96155    1.000
    N4331    N        0.74668    0.44353    0.96049    1.000
    N4332    N        0.70376    0.58208    0.07543    1.000
    N4333    N        0.74202    0.57057    0.01748    1.000
    Si4334   Si       0.74366    0.57519    0.06089    1.000
    Si4335   Si       0.69623    0.55794    0.11064    1.000
    N4336    N        0.71150    0.65127    0.04988    1.000
    N4337    N        0.71016    0.72195    0.02733    1.000
    Si4338   Si       0.73081    0.70607    0.11412    1.000
    Si4339   Si       0.73879    0.75035    0.03964    1.000
    Si4340   Si       0.75359    0.65307    0.06255    1.000
    Si4341   Si       0.71428    0.58935    0.17789    1.000
    N4342    N        0.72778    0.56573    0.14253    1.000
    N4343    N        0.72802    0.53491    0.23924    1.000
    Si4344   Si       0.74627    0.63147    0.21131    1.000
    N4345    N        0.75323    0.58976    0.20235    1.000
    N4346    N        0.71482    0.63328    0.18246    1.000
    Si4347   Si       0.74000    0.73903    0.16601    1.000
    N4348    N        0.72250    0.70081    0.15836    1.000
    N4349    N        0.74127    0.74893    0.12240    1.000
    Si4350   Si       0.69448    0.67079    0.17348    1.000
    Si4351   Si       0.72338    0.54806    0.33952    1.000
    N4352    N        0.71445    0.52478    0.30552    1.000
    Si4353   Si       0.72915    0.62381    0.34906    1.000
    N4354    N        0.74018    0.58660    0.33162    1.000
    N4355    N        0.73603    0.64130    0.25136    1.000
    N4356    N        0.70794    0.64753    0.31887    1.000
    N4357    N        0.71052    0.70047    0.27362    1.000
    Si4358   Si       0.72364    0.74538    0.34443    1.000
    Si4359   Si       0.70544    0.65729    0.27706    1.000
    Si4360   Si       0.74767    0.72356    0.27744    1.000
    N4361    N        0.74288    0.75365    0.24680    1.000
    N4362    N        0.74078    0.53041    0.37475    1.000
    Si4363   Si       0.71815    0.52628    0.41258    1.000
    Si4364   Si       0.71957    0.62235    0.47694    1.000
    N4365    N        0.72733    0.55938    0.44073    1.000
    N4366    N        0.71825    0.62903    0.43344    1.000
    N4367    N        0.69525    0.58830    0.48975    1.000
    N4368    N        0.71168    0.72595    0.38194    1.000
    N4369    N        0.69671    0.74090    0.44147    1.000
    Si4370   Si       0.70330    0.70179    0.42014    1.000
    N4371    N        0.74463    0.69123    0.43416    1.000
    Si4372   Si       0.72328    0.56824    0.58824    1.000
    N4373    N        0.72914    0.58811    0.55029    1.000
    N4374    N        0.72362    0.52407    0.58232    1.000
    N4375    N        0.75052    0.58013    0.62065    1.000
    N4376    N        0.70659    0.65635    0.49992    1.000
    Si4377   Si       0.73721    0.67890    0.52062    1.000
    N4378    N        0.72427    0.70767    0.55085    1.000
    Si4379   Si       0.73959    0.71631    0.59165    1.000
    Si4380   Si       0.74280    0.74418    0.51933    1.000
    N4381    N        0.69987    0.75370    0.51489    1.000
    N4382    N        0.73158    0.75791    0.60297    1.000
    Si4383   Si       0.75055    0.61482    0.64987    1.000
    Si4384   Si       0.72105    0.59766    0.74339    1.000
    N4385    N        0.75441    0.56542    0.74631    1.000
    N4386    N        0.75321    0.62775    0.73319    1.000
    N4387    N        0.70912    0.67027    0.71274    1.000
    N4388    N        0.71283    0.70076    0.62209    1.000
    Si4389   Si       0.70395    0.74348    0.63474    1.000
    N4390    N        0.71329    0.63448    0.65327    1.000
    N4391    N        0.73453    0.56213    0.84408    1.000
    N4392    N        0.71865    0.52621    0.78967    1.000
    Si4393   Si       0.70772    0.56227    0.80812    1.000
    N4394    N        0.70573    0.59506    0.78177    1.000
    N4395    N        0.74718    0.62499    0.83576    1.000
    Si4396   Si       0.74917    0.52477    0.75762    1.000
    Si4397   Si       0.72919    0.59921    0.86846    1.000
    Si4398   Si       0.71585    0.65278    0.82438    1.000
    N4399    N        0.72165    0.68438    0.85446    1.000
    Si4400   Si       0.71795    0.73710    0.75855    1.000
    N4401    N        0.74761    0.70566    0.75641    1.000
    N4402    N        0.69731    0.65634    0.78346    1.000
    N4403    N        0.71372    0.58298    0.95145    1.000
    N4404    N        0.73761    0.51905    0.96938    1.000
    Si4405   Si       0.74396    0.55277    0.94115    1.000
    Si4406   Si       0.72816    0.62279    0.93602    1.000
    N4407    N        0.74420    0.53493    0.90166    1.000
    Si4408   Si       0.72111    0.59991    0.99394    1.000
    Si4409   Si       0.71211    0.50766    0.89203    1.000
    Si4410   Si       0.73617    0.74626    0.90031    1.000
    Si4411   Si       0.71167    0.69496    0.94883    1.000
    N4412    N        0.70927    0.65939    0.92556    1.000
    N4413    N        0.74765    0.70585    0.96976    1.000
    N4414    N        0.70609    0.72205    0.91499    1.000
    N4415    N        0.74142    0.63548    0.97885    1.000
    Si4416   Si       0.69882    0.68408    0.89089    1.000
    N4417    N        0.71245    0.77800    0.06288    1.000
    Si4418   Si       0.72049    0.79071    0.10677    1.000
    Si4419   Si       0.70645    0.85743    0.03479    1.000
    N4420    N        0.74073    0.83446    0.02679    1.000
    N4421    N        0.71010    0.89334    0.05728    1.000
    N4422    N        0.71742    0.99346    0.06327    1.000
    Si4423   Si       0.74790    0.90278    0.07742    1.000
    N4424    N        0.75027    0.99475    0.00057    1.000
    N4425    N        0.74073    0.91416    0.12035    1.000
    Si4426   Si       0.75654    0.00250    0.08332    1.000
    N4427    N        0.72618    0.82958    0.13180    1.000
    Si4428   Si       0.73156    0.79040    0.22623    1.000
    N4429    N        0.71818    0.77269    0.18730    1.000
    N4430    N        0.71392    0.86326    0.19271    1.000
    Si4431   Si       0.69595    0.85078    0.15261    1.000
    N4432    N        0.69472    0.81111    0.23644    1.000
    Si4433   Si       0.73664    0.89644    0.20752    1.000
    N4434    N        0.72341    0.98347    0.21477    1.000
    Si4435   Si       0.70041    0.92549    0.13339    1.000
    N4436    N        0.70651    0.92003    0.22930    1.000
    N4437    N        0.75364    0.92816    0.18391    1.000
    N4438    N        0.70839    0.83672    0.33277    1.000
    Si4439   Si       0.73092    0.87347    0.32556    1.000
    N4440    N        0.72701    0.87681    0.28292    1.000
    N4441    N        0.73629    0.78253    0.36974    1.000
    N4442    N        0.72663    0.98175    0.35224    1.000
    N4443    N        0.70701    0.90848    0.34095    1.000
    Si4444   Si       0.73316    0.93857    0.35727    1.000
    Si4445   Si       0.69443    0.00456    0.36748    1.000
    Si4446   Si       0.70753    0.81781    0.37290    1.000
    N4447    N        0.72112    0.85475    0.39861    1.000
    Si4448   Si       0.71046    0.83492    0.43570    1.000
    N4449    N        0.69652    0.80837    0.47694    1.000
    Si4450   Si       0.71858    0.76164    0.40783    1.000
    Si4451   Si       0.73759    0.81101    0.48884    1.000
    N4452    N        0.75205    0.82725    0.45209    1.000
    N4453    N        0.69278    0.80063    0.41193    1.000
    N4454    N        0.74833    0.92324    0.39738    1.000
    N4455    N        0.72865    0.96926    0.44896    1.000
    Si4456   Si       0.75230    0.93327    0.44110    1.000
    Si4457   Si       0.69871    0.89869    0.47372    1.000
    Si4458   Si       0.74021    0.00378    0.47489    1.000
    N4459    N        0.74071    0.89677    0.46283    1.000
    N4460    N        0.70877    0.80662    0.56766    1.000
    Si4461   Si       0.73158    0.87095    0.53665    1.000
    N4462    N        0.71555    0.87618    0.57803    1.000
    Si4463   Si       0.74733    0.78839    0.57742    1.000
    N4464    N        0.69704    0.87372    0.51151    1.000
    N4465    N        0.72059    0.93673    0.60566    1.000
    Si4466   Si       0.71073    0.98064    0.61113    1.000
    N4467    N        0.74777    0.97020    0.54106    1.000
    Si4468   Si       0.72397    0.00477    0.54666    1.000
    Si4469   Si       0.71894    0.85819    0.66058    1.000
    N4470    N        0.71983    0.82879    0.69349    1.000
    Si4471   Si       0.69876    0.79132    0.69726    1.000
    Si4472   Si       0.74744    0.84180    0.72425    1.000
    N4473    N        0.72084    0.76401    0.66900    1.000
    N4474    N        0.69758    0.76889    0.73407    1.000
    N4475    N        0.75394    0.88272    0.71032    1.000
    N4476    N        0.75317    0.99113    0.62355    1.000
    N4477    N        0.72407    0.95159    0.71647    1.000
    Si4478   Si       0.71974    0.90788    0.71181    1.000
    N4479    N        0.70468    0.89756    0.67182    1.000
    N4480    N        0.72464    0.83150    0.76048    1.000
    N4481    N        0.71855    0.81943    0.82610    1.000
    Si4482   Si       0.72925    0.86265    0.82259    1.000
    Si4483   Si       0.70924    0.80121    0.78866    1.000
    Si4484   Si       0.70112    0.79876    0.86111    1.000
    N4485    N        0.73184    0.76309    0.79211    1.000
    N4486    N        0.72742    0.76332    0.86151    1.000
    N4487    N        0.72818    0.88393    0.86459    1.000
    N4488    N        0.70620    0.93685    0.82385    1.000
    Si4489   Si       0.72701    0.92857    0.86042    1.000
    Si4490   Si       0.74537    0.93454    0.80419    1.000
    Si4491   Si       0.71050    0.97384    0.75366    1.000
    N4492    N        0.74777    0.96780    0.77575    1.000
    N4493    N        0.72234    0.82468    0.96306    1.000
    Si4494   Si       0.73783    0.81330    0.92389    1.000
    N4495    N        0.70474    0.82353    0.89665    1.000
    N4496    N        0.74858    0.77196    0.93204    1.000
    Si4497   Si       0.75189    0.81237    0.99232    1.000
    Si4498   Si       0.71455    0.92183    0.93137    1.000
    Si4499   Si       0.71643    0.97771    0.97710    1.000
    N4500    N        0.72467    0.99036    0.93764    1.000
    N4501    N        0.70120    0.93828    0.97024    1.000
    N4502    N        0.70090    0.94234    0.89248    1.000
    Si4503   Si       0.78942    0.06153    0.03382    1.000
    N4504    N        0.77564    0.09622    0.01090    1.000
    Si4505   Si       0.79644    0.11967    0.07378    1.000
    N4506    N        0.76101    0.03561    0.05492    1.000
    Si4507   Si       0.80489    0.12735    0.00312    1.000
    N4508    N        0.80880    0.03740    0.00443    1.000
    N4509    N        0.81452    0.08235    0.05983    1.000
    N4510    N        0.80521    0.11818    0.11854    1.000
    Si4511   Si       0.79367    0.25054    0.03247    1.000
    N4512    N        0.79021    0.21298    0.00873    1.000
    N4513    N        0.80788    0.14993    0.04258    1.000
    Si4514   Si       0.79994    0.08504    0.15237    1.000
    Si4515   Si       0.79015    0.05592    0.23788    1.000
    N4516    N        0.80173    0.08478    0.20636    1.000
    N4517    N        0.80458    0.04517    0.13753    1.000
    Si4518   Si       0.76283    0.12823    0.12594    1.000
    Si4519   Si       0.76838    0.11377    0.20253    1.000
    Si4520   Si       0.78093    0.00960    0.13777    1.000
    N4521    N        0.75883    0.10177    0.16003    1.000
    N4522    N        0.78601    0.21989    0.17481    1.000
    Si4523   Si       0.76185    0.18417    0.17965    1.000
    Si4524   Si       0.75809    0.24763    0.15625    1.000
    N4525    N        0.78482    0.15367    0.19953    1.000
    N4526    N        0.78319    0.07413    0.27657    1.000
    Si4527   Si       0.76612    0.11473    0.27273    1.000
    N4528    N        0.80208    0.12091    0.32363    1.000
    Si4529   Si       0.76191    0.12483    0.33898    1.000
    N4530    N        0.76042    0.04147    0.33129    1.000
    Si4531   Si       0.75112    0.05606    0.37112    1.000
    N4532    N        0.80180    0.13545    0.25972    1.000
    Si4533   Si       0.77868    0.19710    0.33393    1.000
    N4534    N        0.75796    0.23379    0.32309    1.000
    N4535    N        0.80176    0.20917    0.36750    1.000
    N4536    N        0.80909    0.19010    0.30343    1.000
    N4537    N        0.75563    0.23154    0.25499    1.000
    N4538    N        0.75713    0.09942    0.37373    1.000
    Si4539   Si       0.75935    0.12205    0.41284    1.000
    N4540    N        0.78478    0.04425    0.39721    1.000
    N4541    N        0.78211    0.10226    0.44702    1.000
    Si4542   Si       0.77858    0.05988    0.43859    1.000
    Si4543   Si       0.77670    0.11096    0.49117    1.000
    Si4544   Si       0.77553    0.24058    0.44666    1.000
    Si4545   Si       0.80763    0.24990    0.38069    1.000
    N4546    N        0.75895    0.15089    0.49202    1.000
    N4547    N        0.80083    0.20742    0.43552    1.000
    N4548    N        0.79899    0.14392    0.40304    1.000
    Si4549   Si       0.81225    0.18432    0.40069    1.000
    Si4550   Si       0.77415    0.03867    0.59031    1.000
    Si4551   Si       0.79657    0.11047    0.56400    1.000
    N4552    N        0.77265    0.07004    0.50735    1.000
    N4553    N        0.80065    0.07037    0.57406    1.000
    N4554    N        0.80724    0.12776    0.52422    1.000
    Si4555   Si       0.80183    0.03757    0.49868    1.000
    N4556    N        0.80333    0.00867    0.57450    1.000
    Si4557   Si       0.77773    0.20539    0.59248    1.000
    Si4558   Si       0.78962    0.16965    0.51954    1.000
    N4559    N        0.76983    0.17690    0.55876    1.000
    Si4560   Si       0.80512    0.24914    0.51137    1.000
    N4561    N        0.80851    0.20559    0.50653    1.000
    N4562    N        0.76749    0.25538    0.53063    1.000
    Si4563   Si       0.78279    0.00873    0.65031    1.000
    N4564    N        0.75781    0.12631    0.73174    1.000
    N4565    N        0.77974    0.04929    0.63324    1.000
    Si4566   Si       0.80827    0.07456    0.65519    1.000
    Si4567   Si       0.78984    0.03645    0.71588    1.000
    N4568    N        0.79471    0.11627    0.66253    1.000
    N4569    N        0.79650    0.17056    0.70944    1.000
    Si4570   Si       0.79180    0.21424    0.72926    1.000
    N4571    N        0.76084    0.24243    0.71550    1.000
    N4572    N        0.77988    0.17938    0.62692    1.000
    Si4573   Si       0.77459    0.13588    0.69389    1.000
    N4574    N        0.78604    0.08067    0.79890    1.000
    Si4575   Si       0.79949    0.03860    0.80161    1.000
    N4576    N        0.79458    0.02302    0.75793    1.000
    N4577    N        0.77724    0.01568    0.83196    1.000
    Si4578   Si       0.76696    0.02911    0.87283    1.000
    Si4579   Si       0.81001    0.11689    0.80400    1.000
    Si4580   Si       0.76798    0.15520    0.76018    1.000
    N4581    N        0.80419    0.20070    0.83124    1.000
    N4582    N        0.76459    0.19770    0.76223    1.000
    N4583    N        0.80680    0.15132    0.77789    1.000
    N4584    N        0.75998    0.12777    0.87283    1.000
    N4585    N        0.79581    0.06337    0.87833    1.000
    Si4586   Si       0.79832    0.10838    0.87725    1.000
    Si4587   Si       0.75502    0.17091    0.88596    1.000
    N4588    N        0.79560    0.17844    0.90009    1.000
    N4589    N        0.79377    0.14902    0.96605    1.000
    N4590    N        0.78956    0.32544    0.09441    1.000
    Si4591   Si       0.78701    0.32546    0.05164    1.000
    N4592    N        0.80322    0.35915    0.03294    1.000
    N4593    N        0.81099    0.28908    0.04048    1.000
    Si4594   Si       0.75712    0.30312    0.11224    1.000
    Si4595   Si       0.76185    0.43560    0.07154    1.000
    N4596    N        0.80382    0.42982    0.06178    1.000
    N4597    N        0.76253    0.47127    0.09931    1.000
    Si4598   Si       0.76757    0.50547    0.07152    1.000
    N4599    N        0.81035    0.50020    0.06186    1.000
    Si4600   Si       0.75515    0.41912    0.99478    1.000
    N4601    N        0.75537    0.33584    0.19755    1.000
    N4602    N        0.78409    0.36833    0.14566    1.000
    N4603    N        0.77970    0.27667    0.13666    1.000
    Si4604   Si       0.78311    0.35733    0.22571    1.000
    Si4605   Si       0.81493    0.34646    0.12227    1.000
    Si4606   Si       0.75223    0.47282    0.14176    1.000
    N4607    N        0.78730    0.39608    0.20749    1.000
    Si4608   Si       0.79822    0.40300    0.16700    1.000
    N4609    N        0.77790    0.47022    0.20935    1.000
    Si4610   Si       0.75851    0.43096    0.20390    1.000
    N4611    N        0.76360    0.43210    0.15953    1.000
    Si4612   Si       0.79595    0.50476    0.18985    1.000
    N4613    N        0.77082    0.36127    0.26598    1.000
    Si4614   Si       0.77072    0.30072    0.33870    1.000
    N4615    N        0.76396    0.29639    0.29543    1.000
    N4616    N        0.80820    0.28213    0.34838    1.000
    N4617    N        0.77675    0.33587    0.36568    1.000
    Si4618   Si       0.77401    0.25347    0.28759    1.000
    N4619    N        0.77642    0.39421    0.32522    1.000
    Si4620   Si       0.79145    0.39545    0.28610    1.000
    N4621    N        0.77866    0.43270    0.26848    1.000
    N4622    N        0.77953    0.50119    0.27346    1.000
    N4623    N        0.80339    0.48893    0.36753    1.000
    Si4624   Si       0.79645    0.46737    0.24878    1.000
    N4625    N        0.81073    0.33117    0.42686    1.000
    Si4626   Si       0.78873    0.36016    0.45415    1.000
    N4627    N        0.79568    0.26907    0.47203    1.000
    N4628    N        0.80339    0.33734    0.48883    1.000
    N4629    N        0.77432    0.26252    0.40881    1.000
    Si4630   Si       0.78167    0.40758    0.42094    1.000
    N4631    N        0.80849    0.39054    0.39270    1.000
    N4632    N        0.79919    0.40026    0.46027    1.000
    Si4633   Si       0.79981    0.47172    0.40764    1.000
    N4634    N        0.75780    0.45889    0.48959    1.000
    N4635    N        0.76573    0.44417    0.41040    1.000
    Si4636   Si       0.78838    0.42639    0.49246    1.000
    N4637    N        0.78589    0.29149    0.59036    1.000
    Si4638   Si       0.79510    0.33362    0.58097    1.000
    N4639    N        0.80448    0.36319    0.61161    1.000
    N4640    N        0.76122    0.34567    0.55638    1.000
    Si4641   Si       0.75483    0.27017    0.56938    1.000
    Si4642   Si       0.80294    0.47268    0.60082    1.000
    Si4643   Si       0.76717    0.38750    0.54739    1.000
    N4644    N        0.76071    0.46876    0.61011    1.000
    N4645    N        0.80532    0.39984    0.52788    1.000
    N4646    N        0.75289    0.40131    0.58744    1.000
    Si4647   Si       0.80363    0.29979    0.68815    1.000
    Si4648   Si       0.76729    0.34768    0.68903    1.000
    N4649    N        0.76375    0.30818    0.70665    1.000
    N4650    N        0.75612    0.38114    0.71370    1.000
    Si4651   Si       0.76714    0.38378    0.62534    1.000
    N4652    N        0.81079    0.34056    0.67490    1.000
    Si4653   Si       0.79294    0.46846    0.73916    1.000
    N4654    N        0.77971    0.47652    0.69758    1.000
    Si4655   Si       0.79221    0.44266    0.66965    1.000
    N4656    N        0.75886    0.41992    0.65309    1.000
    Si4657   Si       0.79029    0.39985    0.73207    1.000
    N4658    N        0.78051    0.28357    0.77144    1.000
    Si4659   Si       0.79759    0.33944    0.84933    1.000
    Si4660   Si       0.76777    0.29108    0.81263    1.000
    N4661    N        0.80023    0.28821    0.84521    1.000
    N4662    N        0.76327    0.33256    0.82145    1.000
    N4663    N        0.78156    0.38449    0.84586    1.000
    N4664    N        0.77442    0.44566    0.82284    1.000
    Si4665   Si       0.76399    0.47216    0.85365    1.000
    N4666    N        0.77257    0.43379    0.75359    1.000
    Si4667   Si       0.80584    0.41759    0.83660    1.000
    N4668    N        0.78492    0.50191    0.76851    1.000
    Si4669   Si       0.80902    0.50994    0.80441    1.000
    N4670    N        0.78591    0.50736    0.84167    1.000
    Si4671   Si       0.78504    0.36504    0.92207    1.000
    N4672    N        0.78884    0.28370    0.92227    1.000
    Si4673   Si       0.79271    0.26574    0.88254    1.000
    N4674    N        0.80558    0.34069    0.89193    1.000
    N4675    N        0.80200    0.34080    0.95868    1.000
    Si4676   Si       0.78967    0.36502    0.99191    1.000
    N4677    N        0.76935    0.45319    0.89025    1.000
    N4678    N        0.80152    0.40378    0.92808    1.000
    Si4679   Si       0.80817    0.43801    0.90134    1.000
    N4680    N        0.80001    0.40978    0.99537    1.000
    N4681    N        0.76821    0.61263    0.06210    1.000
    N4682    N        0.80116    0.53470    0.00346    1.000
    N4683    N        0.75657    0.54333    0.08860    1.000
    Si4684   Si       0.75732    0.53271    0.00745    1.000
    Si4685   Si       0.81128    0.60912    0.06933    1.000
    N4686    N        0.77453    0.67872    0.03374    1.000
    Si4687   Si       0.80036    0.71150    0.04852    1.000
    N4688    N        0.77232    0.74134    0.06519    1.000
    Si4689   Si       0.80150    0.67318    0.11022    1.000
    N4690    N        0.75911    0.67707    0.09729    1.000
    Si4691   Si       0.76473    0.54708    0.13211    1.000
    N4692    N        0.79935    0.53897    0.21533    1.000
    Si4693   Si       0.76120    0.55909    0.23057    1.000
    N4694    N        0.80528    0.56111    0.13207    1.000
    N4695    N        0.76946    0.50938    0.15591    1.000
    Si4696   Si       0.80311    0.67286    0.23998    1.000
    N4697    N        0.77892    0.73462    0.18802    1.000
    N4698    N        0.78396    0.65079    0.20688    1.000
    Si4699   Si       0.78139    0.74080    0.22941    1.000
    N4700    N        0.80927    0.68802    0.14969    1.000
    N4701    N        0.78880    0.54336    0.32456    1.000
    Si4702   Si       0.77552    0.58140    0.30637    1.000
    N4703    N        0.78087    0.57561    0.26384    1.000
    N4704    N        0.80788    0.60928    0.32109    1.000
    Si4705   Si       0.78441    0.52880    0.36526    1.000
    Si4706   Si       0.79711    0.72104    0.32871    1.000
    N4707    N        0.80523    0.67705    0.33070    1.000
    N4708    N        0.78288    0.70642    0.25515    1.000
    N4709    N        0.80764    0.74954    0.36268    1.000
    Si4710   Si       0.79940    0.65572    0.36790    1.000
    N4711    N        0.75597    0.73138    0.31894    1.000
    N4712    N        0.80362    0.56773    0.45995    1.000
    Si4713   Si       0.80228    0.62088    0.47247    1.000
    N4714    N        0.75923    0.60845    0.48453    1.000
    Si4715   Si       0.76124    0.56608    0.46712    1.000
    N4716    N        0.80358    0.56312    0.38560    1.000
    N4717    N        0.79597    0.50850    0.42778    1.000
    N4718    N        0.75735    0.53148    0.49363    1.000
    N4719    N        0.80522    0.66204    0.48564    1.000
    Si4720   Si       0.75328    0.65114    0.41853    1.000
    N4721    N        0.80575    0.71820    0.45430    1.000
    N4722    N        0.75804    0.64487    0.37379    1.000
    Si4723   Si       0.76259    0.72635    0.45437    1.000
    N4724    N        0.79279    0.63843    0.43172    1.000
    Si4725   Si       0.76141    0.60550    0.52799    1.000
    N4726    N        0.79699    0.51669    0.59833    1.000
    N4727    N        0.80262    0.58815    0.52644    1.000
    Si4728   Si       0.75438    0.51110    0.61040    1.000
    N4729    N        0.77880    0.69892    0.59077    1.000
    Si4730   Si       0.79333    0.66670    0.56566    1.000
    N4731    N        0.76113    0.64954    0.54247    1.000
    Si4732   Si       0.80584    0.70340    0.50559    1.000
    Si4733   Si       0.80902    0.72039    0.61192    1.000
    N4734    N        0.76104    0.70960    0.50054    1.000
    Si4735   Si       0.77869    0.59483    0.72193    1.000
    Si4736   Si       0.77404    0.55859    0.65076    1.000
    N4737    N        0.76605    0.59056    0.68289    1.000
    N4738    N        0.75215    0.52171    0.65442    1.000
    Si4739   Si       0.74980    0.66982    0.72953    1.000
    Si4740   Si       0.80455    0.72023    0.71678    1.000
    Si4741   Si       0.78478    0.68433    0.65955    1.000
    N4742    N        0.78047    0.64439    0.64337    1.000
    N4743    N        0.78099    0.68542    0.70210    1.000
    N4744    N        0.78235    0.72715    0.64785    1.000
    Si4745   Si       0.76620    0.54081    0.86375    1.000
    Si4746   Si       0.78705    0.63860    0.82561    1.000
    Si4747   Si       0.78313    0.70537    0.78297    1.000
    N4748    N        0.77912    0.72209    0.82491    1.000
    N4749    N        0.79650    0.66462    0.85821    1.000
    Si4750   Si       0.76397    0.69504    0.85759    1.000
    N4751    N        0.77747    0.66333    0.79106    1.000
    N4752    N        0.79955    0.56678    0.87411    1.000
    N4753    N        0.78278    0.57119    0.94634    1.000
    Si4754   Si       0.79084    0.59177    0.90925    1.000
    N4755    N        0.75248    0.60935    0.90375    1.000
    N4756    N        0.80432    0.66802    0.97482    1.000
    Si4757   Si       0.76506    0.66997    0.99227    1.000
    N4758    N        0.77078    0.71950    0.89316    1.000
    Si4759   Si       0.80703    0.72744    0.91345    1.000
    Si4760   Si       0.76278    0.74673    0.96546    1.000
    N4761    N        0.80422    0.74591    0.95234    1.000
    Si4762   Si       0.77094    0.82897    0.05691    1.000
    N4763    N        0.77039    0.86439    0.08286    1.000
    N4764    N        0.76746    0.80302    0.09374    1.000
    Si4765   Si       0.77851    0.76328    0.10222    1.000
    Si4766   Si       0.77328    0.83789    0.12032    1.000
    N4767    N        0.75189    0.76875    0.00153    1.000
    N4768    N        0.76881    0.93459    0.05805    1.000
    N4769    N        0.79412    0.98841    0.10079    1.000
    Si4770   Si       0.80822    0.93745    0.04211    1.000
    N4771    N        0.81509    0.96852    0.01725    1.000
    Si4772   Si       0.80073    0.81113    0.22420    1.000
    N4773    N        0.78281    0.86788    0.15054    1.000
    N4774    N        0.76082    0.82197    0.23888    1.000
    N4775    N        0.80378    0.80874    0.18081    1.000
    N4776    N        0.80903    0.77233    0.24102    1.000
    N4777    N        0.79074    0.95644    0.23228    1.000
    Si4778   Si       0.77405    0.91301    0.14826    1.000
    N4779    N        0.80979    0.93462    0.14401    1.000
    Si4780   Si       0.76196    0.96632    0.20175    1.000
    Si4781   Si       0.80369    0.91204    0.22755    1.000
    N4782    N        0.76918    0.88596    0.23327    1.000
    N4783    N        0.78290    0.99265    0.17713    1.000
    N4784    N        0.79423    0.85673    0.29398    1.000
    N4785    N        0.79653    0.80426    0.33717    1.000
    Si4786   Si       0.80085    0.84606    0.33518    1.000
    N4787    N        0.76403    0.86786    0.35299    1.000
    Si4788   Si       0.76174    0.85763    0.26418    1.000
    Si4789   Si       0.77886    0.78177    0.37087    1.000
    N4790    N        0.77021    0.93990    0.33343    1.000
    Si4791   Si       0.79967    0.98629    0.26188    1.000
    Si4792   Si       0.76347    0.99531    0.33310    1.000
    N4793    N        0.76885    0.99814    0.28965    1.000
    N4794    N        0.79982    0.99138    0.35468    1.000
    Si4795   Si       0.77916    0.79138    0.44160    1.000
    Si4796   Si       0.77200    0.86647    0.45998    1.000
    N4797    N        0.79595    0.80574    0.40272    1.000
    N4798    N        0.80581    0.85851    0.48423    1.000
    N4799    N        0.75934    0.77362    0.48678    1.000
    N4800    N        0.75643    0.75910    0.42593    1.000
    N4801    N        0.79042    0.87764    0.42130    1.000
    Si4802   Si       0.75543    0.88108    0.39298    1.000
    Si4803   Si       0.80985    0.96649    0.48611    1.000
    N4804    N        0.79421    0.94208    0.45245    1.000
    N4805    N        0.78207    0.00040    0.48860    1.000
    N4806    N        0.77932    0.81192    0.59267    1.000
    Si4807   Si       0.79601    0.85345    0.52850    1.000
    Si4808   Si       0.79974    0.77851    0.50664    1.000
    N4809    N        0.76890    0.76719    0.54684    1.000
    Si4810   Si       0.81090    0.79300    0.57045    1.000
    N4811    N        0.75341    0.83693    0.52133    1.000
    N4812    N        0.78868    0.94031    0.58968    1.000
    Si4813   Si       0.77440    0.93817    0.54656    1.000
    N4814    N        0.76572    0.89660    0.53604    1.000
    Si4815   Si       0.80845    0.79478    0.69891    1.000
    Si4816   Si       0.78649    0.83072    0.63022    1.000
    N4817    N        0.78637    0.79836    0.66001    1.000
    N4818    N        0.78903    0.82780    0.72412    1.000
    N4819    N        0.76100    0.86000    0.64573    1.000
    Si4820   Si       0.76481    0.76139    0.66934    1.000
    N4821    N        0.78684    0.75794    0.70863    1.000
    N4822    N        0.76898    0.93385    0.66320    1.000
    Si4823   Si       0.75939    0.94496    0.62113    1.000
    Si4824   Si       0.76267    0.96216    0.69683    1.000
    N4825    N        0.79524    0.95708    0.72616    1.000
    Si4826   Si       0.77592    0.89094    0.67378    1.000
    N4827    N        0.76848    0.00487    0.69133    1.000
    N4828    N        0.77673    0.85216    0.83712    1.000
    N4829    N        0.79357    0.78297    0.83358    1.000
    Si4830   Si       0.80786    0.82272    0.83311    1.000
    Si4831   Si       0.79410    0.87704    0.79707    1.000
    Si4832   Si       0.75485    0.76016    0.82886    1.000
    Si4833   Si       0.78774    0.97997    0.76175    1.000
    Si4834   Si       0.78929    0.97672    0.84962    1.000
    N4835    N        0.76385    0.94273    0.84333    1.000
    N4836    N        0.75365    0.89347    0.79498    1.000
    N4837    N        0.81040    0.89315    0.75859    1.000
    Si4838   Si       0.76510    0.86510    0.87750    1.000
    N4839    N        0.77128    0.83818    0.91250    1.000
    N4840    N        0.78992    0.82577    0.97875    1.000
    Si4841   Si       0.80318    0.84042    0.94060    1.000
    N4842    N        0.80609    0.88458    0.95202    1.000
    N4843    N        0.80052    0.88913    0.88549    1.000
    N4844    N        0.75907    0.93208    0.92609    1.000
    N4845    N        0.77970    0.99070    0.89100    1.000
    Si4846   Si       0.79746    0.91487    0.92114    1.000
    N4847    N        0.79547    0.99305    0.95116    1.000
    Si4848   Si       0.76229    0.97662    0.92946    1.000
    Si4849   Si       0.79245    0.99546    0.99391    1.000
    Si4850   Si       0.85619    0.07090    0.07071    1.000
    N4851    N        0.86602    0.04240    0.10179    1.000
    N4852    N        0.86747    0.10846    0.08788    1.000
    N4853    N        0.87143    0.05994    0.03178    1.000
    Si4854   Si       0.84403    0.06129    0.99730    1.000
    N4855    N        0.85801    0.19059    0.01619    1.000
    Si4856   Si       0.84981    0.23233    0.08372    1.000
    Si4857   Si       0.81870    0.19010    0.03394    1.000
    N4858    N        0.81425    0.22383    0.06290    1.000
    N4859    N        0.86871    0.02000    0.17141    1.000
    Si4860   Si       0.84794    0.11963    0.12622    1.000
    Si4861   Si       0.84505    0.09540    0.20135    1.000
    Si4862   Si       0.84930    0.04668    0.14202    1.000
    N4863    N        0.84805    0.08808    0.15641    1.000
    N4864    N        0.82463    0.20171    0.23255    1.000
    N4865    N        0.84696    0.25174    0.12354    1.000
    N4866    N        0.86572    0.15609    0.13972    1.000
    Si4867   Si       0.86875    0.16923    0.18034    1.000
    Si4868   Si       0.82398    0.22919    0.19759    1.000
    Si4869   Si       0.81717    0.15801    0.22569    1.000
    N4870    N        0.85918    0.21223    0.17801    1.000
    N4871    N        0.85159    0.13981    0.20593    1.000
    N4872    N        0.83103    0.05542    0.34297    1.000
    N4873    N        0.85123    0.08646    0.29275    1.000
    Si4874   Si       0.85653    0.01326    0.26479    1.000
    Si4875   Si       0.81257    0.07990    0.31027    1.000
    N4876    N        0.81822    0.02378    0.24788    1.000
    Si4877   Si       0.83168    0.21246    0.27302    1.000
    Si4878   Si       0.82094    0.14912    0.29585    1.000
    N4879    N        0.86223    0.15308    0.30368    1.000
    N4880    N        0.81881    0.25326    0.27790    1.000
    Si4881   Si       0.81863    0.02649    0.37439    1.000
    Si4882   Si       0.84654    0.02358    0.44372    1.000
    N4883    N        0.86001    0.11478    0.42332    1.000
    N4884    N        0.85333    0.01251    0.40124    1.000
    Si4885   Si       0.81911    0.12568    0.43628    1.000
    N4886    N        0.86272    0.09772    0.49046    1.000
    N4887    N        0.81376    0.04622    0.45831    1.000
    N4888    N        0.85849    0.22828    0.46201    1.000
    N4889    N        0.82506    0.15416    0.46989    1.000
    N4890    N        0.85404    0.18380    0.41139    1.000
    Si4891   Si       0.82854    0.19785    0.46736    1.000
    N4892    N        0.85064    0.24818    0.39036    1.000
    N4893    N        0.83823    0.03915    0.52275    1.000
    Si4894   Si       0.83478    0.04104    0.56561    1.000
    Si4895   Si       0.85159    0.09924    0.60083    1.000
    N4896    N        0.86062    0.08230    0.56158    1.000
    N4897    N        0.81902    0.12862    0.59744    1.000
    N4898    N        0.86533    0.01981    0.58979    1.000
    Si4899   Si       0.84321    0.13466    0.50310    1.000
    Si4900   Si       0.86160    0.22876    0.59410    1.000
    N4901    N        0.81637    0.22606    0.59414    1.000
    N4902    N        0.86691    0.18206    0.59479    1.000
    N4903    N        0.83781    0.11028    0.72153    1.000
    N4904    N        0.84534    0.06694    0.63001    1.000
    Si4905   Si       0.85744    0.07393    0.70781    1.000
    Si4906   Si       0.85278    0.02321    0.63099    1.000
    N4907    N        0.82188    0.05385    0.69209    1.000
    Si4908   Si       0.84452    0.24781    0.66850    1.000
    N4909    N        0.86445    0.17335    0.73477    1.000
    Si4910   Si       0.83957    0.17849    0.69859    1.000
    N4911    N        0.82732    0.22070    0.69630    1.000
    N4912    N        0.84455    0.16143    0.65821    1.000
    Si4913   Si       0.81053    0.14794    0.63436    1.000
    N4914    N        0.83783    0.03874    0.82372    1.000
    N4915    N        0.85182    0.10869    0.78807    1.000
    N4916    N        0.82531    0.11796    0.84375    1.000
    Si4917   Si       0.86599    0.10123    0.83184    1.000
    Si4918   Si       0.83481    0.04706    0.86876    1.000
    Si4919   Si       0.84433    0.13909    0.75315    1.000
    N4920    N        0.85950    0.18298    0.79966    1.000
    Si4921   Si       0.81658    0.19266    0.79115    1.000
    N4922    N        0.82124    0.22515    0.76179    1.000
    N4923    N        0.86626    0.07624    0.86796    1.000
    N4924    N        0.82160    0.11713    0.91453    1.000
    N4925    N        0.83695    0.10415    0.98615    1.000
    N4926    N        0.85655    0.05300    0.95476    1.000
    Si4927   Si       0.84913    0.09497    0.94175    1.000
    N4928    N        0.84813    0.01482    0.89735    1.000
    N4929    N        0.85805    0.18391    0.87377    1.000
    N4930    N        0.82531    0.23928    0.88590    1.000
    Si4931   Si       0.81841    0.15697    0.93140    1.000
    Si4932   Si       0.81772    0.20072    0.87034    1.000
    N4933    N        0.85338    0.18079    0.94084    1.000
    Si4934   Si       0.85404    0.29263    0.04070    1.000
    Si4935   Si       0.86221    0.36785    0.07094    1.000
    N4936    N        0.86330    0.32366    0.06832    1.000
    N4937    N        0.84041    0.38112    0.10841    1.000
    N4938    N        0.85930    0.39658    0.03804    1.000
    Si4939   Si       0.83220    0.46308    0.06970    1.000
    N4940    N        0.84308    0.45409    0.10999    1.000
    N4941    N        0.86625    0.46010    0.04150    1.000
    Si4942   Si       0.81685    0.40101    0.03435    1.000
    Si4943   Si       0.84261    0.31597    0.19385    1.000
    N4944    N        0.83025    0.27302    0.19114    1.000
    N4945    N        0.83047    0.31974    0.15219    1.000
    N4946    N        0.82368    0.33820    0.22670    1.000
    Si4947   Si       0.82166    0.27682    0.14857    1.000
    Si4948   Si       0.85011    0.45446    0.19634    1.000
    N4949    N        0.83743    0.46401    0.23908    1.000
    N4950    N        0.83535    0.48667    0.17046    1.000
    Si4951   Si       0.85665    0.48806    0.13245    1.000
    N4952    N        0.83761    0.41847    0.16934    1.000
    Si4953   Si       0.85292    0.41580    0.12860    1.000
    Si4954   Si       0.84300    0.34815    0.26542    1.000
    Si4955   Si       0.84163    0.30699    0.33887    1.000
    N4956    N        0.83665    0.31815    0.29618    1.000
    Si4957   Si       0.85260    0.27939    0.28558    1.000
    N4958    N        0.84926    0.34056    0.36419    1.000
    N4959    N        0.87112    0.27459    0.32633    1.000
    N4960    N        0.83477    0.38671    0.28160    1.000
    N4961    N        0.84360    0.43106    0.34403    1.000
    Si4962   Si       0.83888    0.47600    0.34415    1.000
    N4963    N        0.83902    0.48731    0.30387    1.000
    Si4964   Si       0.86262    0.40732    0.30948    1.000
    Si4965   Si       0.86489    0.47067    0.27339    1.000
    N4966    N        0.86120    0.30181    0.46833    1.000
    Si4967   Si       0.86703    0.26331    0.48720    1.000
    Si4968   Si       0.81839    0.30578    0.46228    1.000
    Si4969   Si       0.81319    0.34740    0.38692    1.000
    Si4970   Si       0.84185    0.41873    0.38760    1.000
    Si4971   Si       0.85085    0.45066    0.45911    1.000
    N4972    N        0.83366    0.44842    0.41928    1.000
    N4973    N        0.82837    0.32963    0.55260    1.000
    Si4974   Si       0.82581    0.35984    0.51842    1.000
    Si4975   Si       0.85621    0.29443    0.55718    1.000
    N4976    N        0.85229    0.27449    0.59469    1.000
    N4977    N        0.84246    0.26766    0.52383    1.000
    N4978    N        0.86507    0.36369    0.49934    1.000
    Si4979   Si       0.81196    0.26651    0.61124    1.000
    N4980    N        0.82926    0.46369    0.56676    1.000
    Si4981   Si       0.83221    0.43493    0.53504    1.000
    Si4982   Si       0.86789    0.47819    0.58381    1.000
    N4983    N        0.82570    0.45053    0.49418    1.000
    N4984    N        0.83059    0.28946    0.72160    1.000
    Si4985   Si       0.83565    0.35586    0.64314    1.000
    N4986    N        0.81174    0.27279    0.65541    1.000
    N4987    N        0.86808    0.33161    0.63091    1.000
    N4988    N        0.81729    0.36893    0.74579    1.000
    Si4989   Si       0.86109    0.36741    0.74586    1.000
    N4990    N        0.87105    0.45271    0.67868    1.000
    N4991    N        0.81875    0.45196    0.63611    1.000
    Si4992   Si       0.85625    0.43405    0.64047    1.000
    N4993    N        0.85974    0.39176    0.64558    1.000
    Si4994   Si       0.85213    0.43640    0.71282    1.000
    N4995    N        0.83485    0.45791    0.74851    1.000
    N4996    N        0.81400    0.41876    0.69841    1.000
    N4997    N        0.83771    0.34162    0.83122    1.000
    N4998    N        0.84724    0.28309    0.78911    1.000
    Si4999   Si       0.84145    0.29846    0.82813    1.000
    Si5000   Si       0.86000    0.37719    0.81841    1.000
    Si5001   Si       0.81943    0.27108    0.75908    1.000
    N5002    N        0.87146    0.28359    0.85691    1.000
    N5003    N        0.83241    0.43162    0.86792    1.000
    N5004    N        0.83652    0.41053    0.80432    1.000
    Si5005   Si       0.85162    0.44708    0.78643    1.000
    N5006    N        0.84285    0.48312    0.81028    1.000
    N5007    N        0.85810    0.30300    0.91902    1.000
    Si5008   Si       0.85902    0.26621    0.89341    1.000
    Si5009   Si       0.81728    0.31552    0.92689    1.000
    Si5010   Si       0.82274    0.42476    0.96137    1.000
    N5011    N        0.82944    0.45866    0.93399    1.000
    N5012    N        0.86484    0.43100    0.97452    1.000
    Si5013   Si       0.82789    0.53345    0.04020    1.000
    Si5014   Si       0.84043    0.55863    0.10841    1.000
    N5015    N        0.82635    0.56829    0.06651    1.000
    Si5016   Si       0.85877    0.61893    0.00726    1.000
    N5017    N        0.86279    0.52284    0.10728    1.000
    N5018    N        0.83795    0.63409    0.04493    1.000
    N5019    N        0.81601    0.63150    0.10790    1.000
    N5020    N        0.87093    0.52994    0.02818    1.000
    Si5021   Si       0.85706    0.66465    0.06747    1.000
    N5022    N        0.82802    0.73054    0.02362    1.000
    N5023    N        0.82453    0.69173    0.07954    1.000
    Si5024   Si       0.86936    0.71567    0.01843    1.000
    Si5025   Si       0.85639    0.62883    0.12627    1.000
    N5026    N        0.84746    0.59270    0.22835    1.000
    Si5027   Si       0.81907    0.56396    0.24543    1.000
    N5028    N        0.84831    0.63235    0.16968    1.000
    Si5029   Si       0.87338    0.60886    0.19731    1.000
    N5030    N        0.85401    0.73903    0.17726    1.000
    Si5031   Si       0.86529    0.71641    0.21033    1.000
    Si5032   Si       0.81511    0.72875    0.16302    1.000
    Si5033   Si       0.81851    0.65866    0.18179    1.000
    N5034    N        0.83735    0.68475    0.21365    1.000
    N5035    N        0.86766    0.74407    0.24339    1.000
    N5036    N        0.83929    0.54838    0.27930    1.000
    N5037    N        0.85621    0.56525    0.34532    1.000
    Si5038   Si       0.82358    0.59032    0.35556    1.000
    Si5039   Si       0.86334    0.62421    0.25510    1.000
    Si5040   Si       0.86826    0.57025    0.30291    1.000
    N5041    N        0.87116    0.61103    0.29515    1.000
    Si5042   Si       0.81233    0.51851    0.29581    1.000
    Si5043   Si       0.82971    0.64669    0.30950    1.000
    N5044    N        0.83115    0.73862    0.30498    1.000
    N5045    N        0.82520    0.64523    0.26652    1.000
    Si5046   Si       0.86626    0.71257    0.31594    1.000
    N5047    N        0.86839    0.66949    0.31056    1.000
    N5048    N        0.87013    0.71568    0.36109    1.000
    N5049    N        0.83263    0.62904    0.37552    1.000
    N5050    N        0.85905    0.53809    0.42092    1.000
    N5051    N        0.84452    0.60886    0.48148    1.000
    Si5052   Si       0.81685    0.54637    0.42496    1.000
    N5053    N        0.86426    0.54161    0.49520    1.000
    Si5054   Si       0.87139    0.53944    0.37903    1.000
    Si5055   Si       0.83003    0.56937    0.49466    1.000
    Si5056   Si       0.85472    0.65410    0.40252    1.000
    Si5057   Si       0.81470    0.67610    0.44348    1.000
    N5058    N        0.84734    0.75489    0.41789    1.000
    N5059    N        0.85952    0.66738    0.44203    1.000
    Si5060   Si       0.83645    0.72455    0.38722    1.000
    N5061    N        0.81872    0.68658    0.39727    1.000
    Si5062   Si       0.83924    0.75092    0.46115    1.000
    N5063    N        0.84456    0.57144    0.57949    1.000
    Si5064   Si       0.83222    0.53944    0.60756    1.000
    Si5065   Si       0.82505    0.60586    0.55845    1.000
    N5066    N        0.86440    0.62376    0.54517    1.000
    N5067    N        0.86356    0.50833    0.61595    1.000
    Si5068   Si       0.86427    0.66942    0.54716    1.000
    N5069    N        0.82571    0.74356    0.50773    1.000
    N5070    N        0.82398    0.68581    0.54305    1.000
    N5071    N        0.82036    0.75588    0.59018    1.000
    N5072    N        0.81367    0.63426    0.58707    1.000
    Si5073   Si       0.85773    0.59368    0.73322    1.000
    N5074    N        0.84770    0.61923    0.65764    1.000
    Si5075   Si       0.85293    0.57334    0.66167    1.000
    N5076    N        0.81803    0.55850    0.64295    1.000
    N5077    N        0.86481    0.56558    0.70210    1.000
    N5078    N        0.86277    0.73930    0.63451    1.000
    N5079    N        0.82544    0.68595    0.63866    1.000
    Si5080   Si       0.85643    0.70625    0.65992    1.000
    Si5081   Si       0.82165    0.63931    0.62889    1.000
    N5082    N        0.84301    0.72287    0.69777    1.000
    Si5083   Si       0.87024    0.75514    0.70823    1.000
    Si5084   Si       0.83499    0.55719    0.84965    1.000
    Si5085   Si       0.82899    0.58682    0.78567    1.000
    Si5086   Si       0.86476    0.62564    0.83567    1.000
    N5087    N        0.82290    0.54982    0.80855    1.000
    N5088    N        0.82388    0.61678    0.81610    1.000
    N5089    N        0.86651    0.58604    0.85083    1.000
    N5090    N        0.85701    0.52495    0.86913    1.000
    N5091    N        0.81549    0.59527    0.74294    1.000
    N5092    N        0.87034    0.57860    0.77208    1.000
    Si5093   Si       0.81534    0.74584    0.83989    1.000
    N5094    N        0.84890    0.73836    0.81407    1.000
    Si5095   Si       0.85811    0.72291    0.77349    1.000
    N5096    N        0.86617    0.65329    0.86837    1.000
    N5097    N        0.81807    0.71168    0.75662    1.000
    N5098    N        0.83932    0.53884    0.93707    1.000
    N5099    N        0.82022    0.62192    0.90887    1.000
    N5100    N        0.84688    0.58084    0.98985    1.000
    Si5101   Si       0.81773    0.55661    0.96804    1.000
    Si5102   Si       0.87125    0.52626    0.90984    1.000
    Si5103   Si       0.84133    0.67721    0.95732    1.000
    N5104    N        0.86586    0.64387    0.97247    1.000
    N5105    N        0.86118    0.71388    0.97483    1.000
    Si5106   Si       0.82719    0.65865    0.88742    1.000
    N5107    N        0.82840    0.74736    0.88121    1.000
    N5108    N        0.83065    0.69103    0.91725    1.000
    Si5109   Si       0.83390    0.74687    0.98392    1.000
    Si5110   Si       0.83880    0.82168    0.08005    1.000
    N5111    N        0.86367    0.78627    0.07132    1.000
    Si5112   Si       0.82666    0.82367    0.00306    1.000
    N5113    N        0.86212    0.85904    0.07451    1.000
    N5114    N        0.85794    0.85646    0.99815    1.000
    N5115    N        0.81222    0.82258    0.04438    1.000
    Si5116   Si       0.85420    0.88072    0.03811    1.000
    N5117    N        0.83697    0.93824    0.07623    1.000
    N5118    N        0.81806    0.90056    0.02040    1.000
    Si5119   Si       0.82385    0.96010    0.11081    1.000
    N5120    N        0.86228    0.97676    0.12282    1.000
    N5121    N        0.82183    0.82562    0.12029    1.000
    Si5122   Si       0.82429    0.85929    0.16257    1.000
    N5123    N        0.85875    0.83641    0.17945    1.000
    Si5124   Si       0.83029    0.79331    0.14790    1.000
    N5125    N        0.82898    0.84121    0.23929    1.000
    Si5126   Si       0.86922    0.84511    0.22042    1.000
    N5127    N        0.80921    0.75869    0.13308    1.000
    N5128    N        0.85441    0.88431    0.13658    1.000
    Si5129   Si       0.84590    0.91800    0.16327    1.000
    N5130    N        0.82347    0.89433    0.19184    1.000
    Si5131   Si       0.83345    0.77765    0.33197    1.000
    N5132    N        0.85531    0.79378    0.29601    1.000
    Si5133   Si       0.83000    0.86834    0.27296    1.000
    N5134    N        0.82962    0.86247    0.36206    1.000
    N5135    N        0.86282    0.86519    0.30154    1.000
    N5136    N        0.86147    0.79277    0.36135    1.000
    Si5137   Si       0.84056    0.76268    0.26987    1.000
    Si5138   Si       0.85614    0.88758    0.33838    1.000
    N5139    N        0.83675    0.97608    0.28152    1.000
    N5140    N        0.83748    0.92520    0.32573    1.000
    Si5141   Si       0.85150    0.93647    0.28602    1.000
    N5142    N        0.83208    0.90763    0.25842    1.000
    Si5143   Si       0.80834    0.94846    0.35024    1.000
    Si5144   Si       0.82774    0.86018    0.40454    1.000
    Si5145   Si       0.83895    0.79317    0.40165    1.000
    N5146    N        0.85302    0.82741    0.42240    1.000
    Si5147   Si       0.83737    0.83065    0.46546    1.000
    N5148    N        0.81846    0.79134    0.46565    1.000
    N5149    N        0.85178    0.89330    0.42643    1.000
    N5150    N        0.84475    0.98512    0.46544    1.000
    Si5151   Si       0.81479    0.91696    0.42385    1.000
    N5152    N        0.82841    0.93845    0.38903    1.000
    N5153    N        0.85254    0.80768    0.57995    1.000
    Si5154   Si       0.84903    0.85199    0.58582    1.000
    N5155    N        0.82830    0.87668    0.55351    1.000
    Si5156   Si       0.86337    0.76889    0.60211    1.000
    N5157    N        0.81116    0.81122    0.53174    1.000
    Si5158   Si       0.84180    0.92032    0.55000    1.000
    N5159    N        0.84980    0.95467    0.57852    1.000
    Si5160   Si       0.81573    0.97461    0.59732    1.000
    N5161    N        0.81372    0.94294    0.52283    1.000
    N5162    N        0.82480    0.85381    0.62093    1.000
    Si5163   Si       0.81615    0.86361    0.72650    1.000
    N5164    N        0.85628    0.84998    0.73239    1.000
    N5165    N        0.85200    0.79322    0.69528    1.000
    Si5166   Si       0.84358    0.87786    0.65242    1.000
    N5167    N        0.81529    0.87814    0.68646    1.000
    N5168    N        0.86279    0.93694    0.73412    1.000
    N5169    N        0.85769    0.91717    0.64193    1.000
    N5170    N        0.82127    0.99406    0.63559    1.000
    Si5171   Si       0.82394    0.93336    0.74895    1.000
    Si5172   Si       0.85730    0.84214    0.77580    1.000
    N5173    N        0.83785    0.83724    0.85972    1.000
    N5174    N        0.81878    0.83906    0.79335    1.000
    Si5175   Si       0.83219    0.88196    0.85620    1.000
    N5176    N        0.83063    0.97020    0.84840    1.000
    Si5177   Si       0.84055    0.94234    0.81656    1.000
    N5178    N        0.82415    0.90271    0.82212    1.000
    N5179    N        0.81811    0.95826    0.78535    1.000
    Si5180   Si       0.86677    0.98457    0.87005    1.000
    N5181    N        0.84513    0.82937    0.93016    1.000
    N5182    N        0.84829    0.78731    0.99109    1.000
    Si5183   Si       0.86673    0.84684    0.89421    1.000
    Si5184   Si       0.86746    0.79873    0.95011    1.000
    N5185    N        0.87194    0.88938    0.87423    1.000
    N5186    N        0.82759    0.94610    0.91879    1.000
    Si5187   Si       0.81831    0.98829    0.91385    1.000
    Si5188   Si       0.83774    0.89286    0.98119    1.000
    Si5189   Si       0.87141    0.94312    0.93135    1.000
    N5190    N        0.86815    0.91550    0.96183    1.000
    Si5191   Si       0.90844    0.11928    0.07958    1.000
    Si5192   Si       0.91480    0.06461    0.03047    1.000
    N5193    N        0.93008    0.08377    0.06628    1.000
    N5194    N        0.92261    0.09112    0.99750    1.000
    N5195    N        0.93193    0.02212    0.09719    1.000
    Si5196   Si       0.88934    0.00687    0.09694    1.000
    N5197    N        0.87521    0.19439    0.08562    1.000
    Si5198   Si       0.92398    0.13488    0.00540    1.000
    N5199    N        0.92581    0.14495    0.11021    1.000
    N5200    N        0.90786    0.14420    0.04288    1.000
    Si5201   Si       0.89052    0.18385    0.04447    1.000
    Si5202   Si       0.90175    0.24431    0.01917    1.000
    N5203    N        0.92491    0.20949    0.03332    1.000
    Si5204   Si       0.89779    0.17754    0.11849    1.000
    N5205    N        0.87197    0.25426    0.05167    1.000
    Si5206   Si       0.91318    0.09175    0.23379    1.000
    N5207    N        0.87602    0.07168    0.21712    1.000
    Si5208   Si       0.89311    0.03394    0.20473    1.000
    N5209    N        0.93055    0.03692    0.18426    1.000
    Si5210   Si       0.87924    0.23905    0.14956    1.000
    N5211    N        0.91468    0.21449    0.13308    1.000
    N5212    N        0.91042    0.16949    0.18777    1.000
    N5213    N        0.89801    0.09700    0.33044    1.000
    N5214    N        0.90703    0.12418    0.26086    1.000
    N5215    N        0.89971    0.04525    0.36053    1.000
    N5216    N        0.88340    0.03030    0.29611    1.000
    Si5217   Si       0.88259    0.11636    0.29546    1.000
    Si5218   Si       0.92520    0.03645    0.28736    1.000
    Si5219   Si       0.87252    0.06008    0.32716    1.000
    Si5220   Si       0.89049    0.18604    0.31000    1.000
    N5221    N        0.89054    0.20448    0.34956    1.000
    Si5222   Si       0.90445    0.23961    0.26429    1.000
    Si5223   Si       0.88151    0.24644    0.35835    1.000
    N5224    N        0.87467    0.21235    0.27886    1.000
    N5225    N        0.88436    0.04887    0.44996    1.000
    Si5226   Si       0.88409    0.09256    0.45331    1.000
    Si5227   Si       0.92326    0.03005    0.44797    1.000
    N5228    N        0.92380    0.10238    0.43483    1.000
    N5229    N        0.92951    0.00692    0.41145    1.000
    Si5230   Si       0.89396    0.00940    0.38382    1.000
    N5231    N        0.89674    0.15784    0.46008    1.000
    Si5232   Si       0.92216    0.19623    0.37913    1.000
    N5233    N        0.91565    0.15450    0.39114    1.000
    N5234    N        0.91310    0.22446    0.41036    1.000
    Si5235   Si       0.88284    0.15036    0.42118    1.000
    Si5236   Si       0.86965    0.22373    0.42117    1.000
    N5237    N        0.91064    0.25632    0.49412    1.000
    N5238    N        0.90971    0.04997    0.52316    1.000
    Si5239   Si       0.92642    0.12267    0.59754    1.000
    N5240    N        0.92661    0.11207    0.50236    1.000
    Si5241   Si       0.87133    0.06914    0.52189    1.000
    Si5242   Si       0.92335    0.00864    0.51569    1.000
    N5243    N        0.89360    0.22552    0.55865    1.000
    Si5244   Si       0.88945    0.17819    0.55991    1.000
    Si5245   Si       0.92344    0.22937    0.52514    1.000
    N5246    N        0.92250    0.15064    0.56593    1.000
    Si5247   Si       0.90816    0.15206    0.50160    1.000
    N5248    N        0.92795    0.18970    0.50889    1.000
    N5249    N        0.87215    0.15707    0.52466    1.000
    N5250    N        0.89054    0.10938    0.61854    1.000
    Si5251   Si       0.89412    0.07013    0.64585    1.000
    N5252    N        0.88842    0.02771    0.65735    1.000
    N5253    N        0.89323    0.08729    0.68675    1.000
    N5254    N        0.87516    0.05541    0.74150    1.000
    Si5255   Si       0.92778    0.10274    0.70823    1.000
    N5256    N        0.86987    0.22627    0.63957    1.000
    N5257    N        0.91505    0.18305    0.65142    1.000
    Si5258   Si       0.90821    0.24599    0.65801    1.000
    Si5259   Si       0.87633    0.18140    0.63645    1.000
    N5260    N        0.89860    0.06918    0.80816    1.000
    Si5261   Si       0.88517    0.08709    0.76872    1.000
    Si5262   Si       0.87882    0.03065    0.81588    1.000
    Si5263   Si       0.90470    0.02615    0.74892    1.000
    N5264    N        0.91188    0.11189    0.74773    1.000
    N5265    N        0.89480    0.13256    0.83784    1.000
    Si5266   Si       0.88414    0.19565    0.76651    1.000
    N5267    N        0.91586    0.19759    0.84491    1.000
    N5268    N        0.90106    0.23153    0.78477    1.000
    Si5269   Si       0.88018    0.17432    0.83787    1.000
    N5270    N        0.92353    0.17535    0.77753    1.000
    Si5271   Si       0.92959    0.20767    0.80488    1.000
    Si5272   Si       0.87641    0.02207    0.93155    1.000
    N5273    N        0.90884    0.04231    0.91121    1.000
    Si5274   Si       0.89950    0.08136    0.89411    1.000
    N5275    N        0.88905    0.10571    0.92824    1.000
    Si5276   Si       0.91836    0.13838    0.93628    1.000
    N5277    N        0.89519    0.23242    0.97703    1.000
    N5278    N        0.91943    0.17514    0.91146    1.000
    N5279    N        0.88693    0.23850    0.91202    1.000
    Si5280   Si       0.87814    0.19127    0.97607    1.000
    Si5281   Si       0.88042    0.19600    0.90941    1.000
    N5282    N        0.90701    0.15859    0.97522    1.000
    Si5283   Si       0.91219    0.25453    0.94316    1.000
    Si5284   Si       0.90085    0.32516    0.08964    1.000
    N5285    N        0.90513    0.37014    0.08080    1.000
    N5286    N        0.92413    0.34998    0.00897    1.000
    Si5287   Si       0.92535    0.37787    0.04276    1.000
    N5288    N        0.87551    0.30056    0.00304    1.000
    N5289    N        0.92012    0.49525    0.06890    1.000
    Si5290   Si       0.89214    0.49343    0.03400    1.000
    N5291    N        0.92193    0.41306    0.01431    1.000
    Si5292   Si       0.87991    0.42837    0.01546    1.000
    Si5293   Si       0.91426    0.37760    0.12334    1.000
    N5294    N        0.88581    0.32184    0.19719    1.000
    N5295    N        0.90956    0.26787    0.16206    1.000
    N5296    N        0.90612    0.33604    0.13205    1.000
    Si5297   Si       0.91343    0.31180    0.16562    1.000
    Si5298   Si       0.90113    0.31220    0.23679    1.000
    Si5299   Si       0.92449    0.47154    0.22579    1.000
    N5300    N        0.89363    0.45357    0.19960    1.000
    Si5301   Si       0.91165    0.44609    0.16112    1.000
    N5302    N        0.89481    0.41312    0.13710    1.000
    N5303    N        0.90081    0.48151    0.13761    1.000
    N5304    N        0.88829    0.34465    0.26270    1.000
    Si5305   Si       0.91244    0.35991    0.29541    1.000
    N5306    N        0.87869    0.27586    0.25127    1.000
    Si5307   Si       0.91542    0.28559    0.32561    1.000
    N5308    N        0.89104    0.38091    0.32714    1.000
    N5309    N        0.92012    0.26459    0.36197    1.000
    Si5310   Si       0.88692    0.36484    0.36696    1.000
    N5311    N        0.92840    0.25884    0.29527    1.000
    Si5312   Si       0.91596    0.50097    0.36211    1.000
    N5313    N        0.88807    0.43671    0.28945    1.000
    N5314    N        0.89869    0.49296    0.25588    1.000
    N5315    N        0.87350    0.49861    0.36372    1.000
    Si5316   Si       0.93015    0.42861    0.28917    1.000
    Si5317   Si       0.88690    0.33546    0.47459    1.000
    N5318    N        0.90563    0.35807    0.44161    1.000
    N5319    N        0.92450    0.34392    0.37913    1.000
    N5320    N        0.92889    0.32156    0.49143    1.000
    Si5321   Si       0.91910    0.45413    0.46043    1.000
    Si5322   Si       0.89974    0.39756    0.43115    1.000
    N5323    N        0.87944    0.39673    0.39302    1.000
    N5324    N        0.88427    0.42115    0.46484    1.000
    N5325    N        0.88265    0.48342    0.45813    1.000
    N5326    N        0.89673    0.31143    0.57037    1.000
    Si5327   Si       0.88618    0.29660    0.61296    1.000
    Si5328   Si       0.92615    0.34276    0.57843    1.000
    N5329    N        0.90641    0.37818    0.59214    1.000
    N5330    N        0.92026    0.27214    0.62499    1.000
    Si5331   Si       0.92816    0.48251    0.53771    1.000
    Si5332   Si       0.88802    0.40051    0.50328    1.000
    Si5333   Si       0.89659    0.41521    0.57353    1.000
    N5334    N        0.88450    0.44271    0.60665    1.000
    N5335    N        0.88905    0.49722    0.55049    1.000
    N5336    N        0.87055    0.41882    0.53991    1.000
    N5337    N        0.92853    0.38984    0.51361    1.000
    N5338    N        0.92931    0.49890    0.61099    1.000
    Si5339   Si       0.87383    0.29891    0.71295    1.000
    N5340    N        0.92558    0.36285    0.66498    1.000
    Si5341   Si       0.89631    0.36738    0.63330    1.000
    N5342    N        0.90220    0.28207    0.74025    1.000
    N5343    N        0.87963    0.27304    0.67896    1.000
    N5344    N        0.88083    0.34167    0.71563    1.000
    Si5345   Si       0.92235    0.35672    0.70903    1.000
    N5346    N        0.87509    0.40826    0.73661    1.000
    Si5347   Si       0.91223    0.46660    0.68239    1.000
    N5348    N        0.92245    0.45788    0.72465    1.000
    N5349    N        0.90907    0.30124    0.80854    1.000
    Si5350   Si       0.88911    0.27193    0.78132    1.000
    Si5351   Si       0.91283    0.30023    0.85243    1.000
    N5352    N        0.88475    0.36199    0.78370    1.000
    Si5353   Si       0.92005    0.33971    0.79460    1.000
    Si5354   Si       0.92299    0.36864    0.86104    1.000
    N5355    N        0.88638    0.39153    0.85051    1.000
    N5356    N        0.89583    0.46324    0.84580    1.000
    N5357    N        0.89488    0.44630    0.78520    1.000
    Si5358   Si       0.87608    0.43138    0.86701    1.000
    Si5359   Si       0.87403    0.50015    0.83689    1.000
    Si5360   Si       0.91507    0.42134    0.75109    1.000
    Si5361   Si       0.92735    0.45362    0.81689    1.000
    Si5362   Si       0.89803    0.32462    0.92459    1.000
    N5363    N        0.90644    0.36560    0.94378    1.000
    N5364    N        0.91584    0.29726    0.95235    1.000
    N5365    N        0.91254    0.33223    0.88470    1.000
    Si5366   Si       0.91595    0.30900    0.99377    1.000
    Si5367   Si       0.91600    0.50527    0.96231    1.000
    N5368    N        0.88576    0.42618    0.90921    1.000
    Si5369   Si       0.91825    0.40022    0.92167    1.000
    N5370    N        0.89030    0.49337    0.92981    1.000
    N5371    N        0.91027    0.48028    0.99718    1.000
    Si5372   Si       0.87138    0.45551    0.93974    1.000
    N5373    N        0.89787    0.59986    0.01928    1.000
    Si5374   Si       0.90698    0.51204    0.10649    1.000
    Si5375   Si       0.88541    0.56270    0.00286    1.000
    N5376    N        0.86949    0.58868    0.11887    1.000
    N5377    N        0.88669    0.68507    0.04350    1.000
    N5378    N        0.89611    0.74948    0.02202    1.000
    N5379    N        0.87812    0.65894    0.10606    1.000
    N5380    N        0.88717    0.72605    0.11960    1.000
    Si5381   Si       0.90705    0.68661    0.11966    1.000
    Si5382   Si       0.92936    0.68087    0.05087    1.000
    N5383    N        0.92399    0.54345    0.12946    1.000
    N5384    N        0.90540    0.59044    0.17758    1.000
    Si5385   Si       0.90909    0.58463    0.13411    1.000
    N5386    N        0.90766    0.70161    0.21532    1.000
    N5387    N        0.89313    0.63567    0.22557    1.000
    Si5388   Si       0.91766    0.66158    0.20224    1.000
    N5389    N        0.92238    0.67058    0.15780    1.000
    Si5390   Si       0.89128    0.74839    0.15724    1.000
    N5391    N        0.91804    0.60955    0.34882    1.000
    N5392    N        0.90752    0.55707    0.29039    1.000
    Si5393   Si       0.92465    0.51709    0.28261    1.000
    Si5394   Si       0.90186    0.63929    0.31763    1.000
    N5395    N        0.90203    0.72981    0.29538    1.000
    Si5396   Si       0.91003    0.72795    0.25284    1.000
    Si5397   Si       0.90779    0.69383    0.36710    1.000
    N5398    N        0.92745    0.67897    0.33133    1.000
    N5399    N        0.91581    0.54548    0.37628    1.000
    Si5400   Si       0.88035    0.52714    0.45690    1.000
    N5401    N        0.92577    0.54003    0.44551    1.000
    N5402    N        0.92348    0.60499    0.42422    1.000
    N5403    N        0.91310    0.61356    0.49302    1.000
    Si5404   Si       0.92811    0.62920    0.38719    1.000
    Si5405   Si       0.88836    0.68831    0.46663    1.000
    N5406    N        0.88046    0.73108    0.46740    1.000
    Si5407   Si       0.91519    0.75290    0.48414    1.000
    N5408    N        0.89534    0.65635    0.38680    1.000
    N5409    N        0.92470    0.67058    0.45114    1.000
    N5410    N        0.90653    0.57046    0.54683    1.000
    N5411    N        0.90157    0.61797    0.60186    1.000
    Si5412   Si       0.89401    0.53314    0.52599    1.000
    Si5413   Si       0.88118    0.59342    0.57201    1.000
    Si5414   Si       0.87476    0.62638    0.50298    1.000
    N5415    N        0.89639    0.68366    0.57108    1.000
    Si5416   Si       0.91452    0.72135    0.55802    1.000
    Si5417   Si       0.92399    0.64961    0.58164    1.000
    N5418    N        0.88004    0.66970    0.50597    1.000
    N5419    N        0.89001    0.75393    0.56710    1.000
    N5420    N        0.92923    0.72644    0.51576    1.000
    N5421    N        0.91580    0.61688    0.67440    1.000
    Si5422   Si       0.89959    0.54110    0.70988    1.000
    N5423    N        0.88985    0.56531    0.63881    1.000
    Si5424   Si       0.89939    0.52148    0.63590    1.000
    Si5425   Si       0.91857    0.59707    0.63571    1.000
    N5426    N        0.90449    0.51186    0.67777    1.000
    N5427    N        0.87315    0.63409    0.72481    1.000
    Si5428   Si       0.87813    0.64001    0.68164    1.000
    N5429    N        0.88975    0.67829    0.66260    1.000
    N5430    N        0.90761    0.74362    0.68917    1.000
    Si5431   Si       0.90315    0.74896    0.64664    1.000
    N5432    N        0.90153    0.53128    0.82319    1.000
    Si5433   Si       0.90133    0.55992    0.85799    1.000
    Si5434   Si       0.90163    0.55176    0.78142    1.000
    N5435    N        0.90188    0.52129    0.74888    1.000
    N5436    N        0.89268    0.63851    0.80591    1.000
    Si5437   Si       0.89467    0.64819    0.76266    1.000
    N5438    N        0.91626    0.74229    0.80053    1.000
    N5439    N        0.89280    0.69244    0.76606    1.000
    Si5440   Si       0.88984    0.74355    0.83340    1.000
    N5441    N        0.87501    0.75475    0.75158    1.000
    N5442    N        0.92097    0.61562    0.93159    1.000
    N5443    N        0.90274    0.55565    0.90189    1.000
    N5444    N        0.91245    0.54819    0.96984    1.000
    Si5445   Si       0.92393    0.57238    0.93468    1.000
    Si5446   Si       0.86997    0.75347    0.88798    1.000
    N5447    N        0.89237    0.71950    0.87023    1.000
    Si5448   Si       0.89572    0.72378    0.95008    1.000
    Si5449   Si       0.89863    0.67869    0.88371    1.000
    N5450    N        0.89650    0.68334    0.92706    1.000
    Si5451   Si       0.90242    0.64780    0.95283    1.000
    N5452    N        0.92827    0.65647    0.98822    1.000
    N5453    N        0.90764    0.81791    0.02732    1.000
    Si5454   Si       0.88698    0.76559    0.10068    1.000
    Si5455   Si       0.87588    0.78659    0.02781    1.000
    Si5456   Si       0.88683    0.87648    0.10619    1.000
    N5457    N        0.92951    0.77909    0.09320    1.000
    N5458    N        0.88529    0.91217    0.03614    1.000
    N5459    N        0.89640    0.97675    0.06420    1.000
    N5460    N        0.90254    0.91694    0.10353    1.000
    Si5461   Si       0.88173    0.93796    0.07070    1.000
    Si5462   Si       0.92352    0.91212    0.01326    1.000
    N5463    N        0.92765    0.95637    0.00495    1.000
    Si5464   Si       0.92817    0.98466    0.03664    1.000
    N5465    N        0.91390    0.84748    0.12543    1.000
    N5466    N        0.92404    0.81815    0.18789    1.000
    Si5467   Si       0.89480    0.82481    0.15623    1.000
    N5468    N        0.87462    0.78769    0.14016    1.000
    N5469    N        0.89728    0.87962    0.21973    1.000
    Si5470   Si       0.92922    0.84712    0.23014    1.000
    Si5471   Si       0.88280    0.97935    0.15971    1.000
    Si5472   Si       0.90730    0.91964    0.20467    1.000
    N5473    N        0.87485    0.94225    0.18198    1.000
    N5474    N        0.88771    0.00147    0.23547    1.000
    N5475    N        0.92638    0.97488    0.14778    1.000
    N5476    N        0.91130    0.82080    0.32181    1.000
    Si5477   Si       0.90177    0.81108    0.36382    1.000
    Si5478   Si       0.88251    0.82652    0.28973    1.000
    N5479    N        0.89486    0.82524    0.24844    1.000
    N5480    N        0.89199    0.90763    0.35649    1.000
    N5481    N        0.89309    0.94498    0.28867    1.000
    Si5482   Si       0.90641    0.94425    0.33022    1.000
    N5483    N        0.88977    0.97203    0.36084    1.000
    Si5484   Si       0.91150    0.97179    0.25900    1.000
    N5485    N        0.93116    0.79017    0.38845    1.000
    N5486    N        0.90459    0.84968    0.38476    1.000
    Si5487   Si       0.89304    0.84783    0.42692    1.000
    N5488    N        0.92190    0.82145    0.44942    1.000
    N5489    N        0.87321    0.85489    0.47260    1.000
    Si5490   Si       0.90513    0.83101    0.49462    1.000
    N5491    N        0.91833    0.88382    0.44250    1.000
    N5492    N        0.88202    0.93187    0.48246    1.000
    N5493    N        0.89543    0.94565    0.42050    1.000
    Si5494   Si       0.88527    0.96727    0.45761    1.000
    Si5495   Si       0.87846    0.89560    0.45976    1.000
    N5496    N        0.91380    0.99446    0.47566    1.000
    Si5497   Si       0.87299    0.93908    0.38361    1.000
    Si5498   Si       0.89224    0.79791    0.54928    1.000
    N5499    N        0.88787    0.86547    0.59677    1.000
    Si5500   Si       0.90162    0.87484    0.55840    1.000
    N5501    N        0.89670    0.78664    0.50407    1.000
    N5502    N        0.88855    0.84140    0.53545    1.000
    N5503    N        0.93239    0.80881    0.56384    1.000
    N5504    N        0.88337    0.91151    0.54509    1.000
    N5505    N        0.90817    0.97724    0.54227    1.000
    Si5506   Si       0.90263    0.93993    0.52025    1.000
    Si5507   Si       0.88445    0.98160    0.57908    1.000
    N5508    N        0.90849    0.96532    0.61168    1.000
    N5509    N        0.90240    0.78568    0.62368    1.000
    N5510    N        0.92012    0.82326    0.70079    1.000
    Si5511   Si       0.91103    0.86339    0.63361    1.000
    N5512    N        0.87896    0.85461    0.66272    1.000
    Si5513   Si       0.87829    0.83018    0.69814    1.000
    Si5514   Si       0.89512    0.93454    0.64019    1.000
    N5515    N        0.90163    0.95566    0.67789    1.000
    Si5516   Si       0.91175    0.99695    0.67832    1.000
    N5517    N        0.91076    0.99695    0.72066    1.000
    N5518    N        0.92557    0.90347    0.64447    1.000
    Si5519   Si       0.89978    0.95476    0.72324    1.000
    Si5520   Si       0.91388    0.84241    0.79726    1.000
    Si5521   Si       0.90665    0.77467    0.77189    1.000
    N5522    N        0.88644    0.81107    0.78502    1.000
    N5523    N        0.88330    0.87382    0.79500    1.000
    N5524    N        0.88737    0.77875    0.85808    1.000
    N5525    N        0.88619    0.93642    0.82027    1.000
    Si5526   Si       0.90666    0.90810    0.78951    1.000
    Si5527   Si       0.90985    0.96816    0.79789    1.000
    N5528    N        0.92308    0.94059    0.76096    1.000
    N5529    N        0.88749    0.00290    0.78339    1.000
    Si5530   Si       0.89996    0.91972    0.86091    1.000
    N5531    N        0.89585    0.00667    0.84749    1.000
    Si5532   Si       0.92343    0.80398    0.86809    1.000
    N5533    N        0.92884    0.87692    0.98678    1.000
    Si5534   Si       0.90034    0.84596    0.99304    1.000
    N5535    N        0.90761    0.83267    0.89689    1.000
    N5536    N        0.90443    0.81846    0.96094    1.000
    N5537    N        0.87892    0.76193    0.93010    1.000
    N5538    N        0.87965    0.98301    0.95128    1.000
    N5539    N        0.88663    0.95217    0.88944    1.000
    Si5540   Si       0.92077    0.97200    0.96559    1.000
    Si5541   Si       0.95318    0.06072    0.09491    1.000
    N5542    N        0.93633    0.02604    0.02121    1.000
    N5543    N        0.99228    0.13309    0.10045    1.000
    N5544    N        0.96736    0.13289    0.00169    1.000
    Si5545   Si       0.96875    0.21252    0.03831    1.000
    N5546    N        0.97174    0.24788    0.06592    1.000
    N5547    N        0.98962    0.20186    0.11442    1.000
    N5548    N        0.95341    0.08379    0.13331    1.000
    Si5549   Si       0.95468    0.07494    0.17639    1.000
    Si5550   Si       0.96845    0.03381    0.22976    1.000
    N5551    N        0.93729    0.10543    0.19822    1.000
    Si5552   Si       0.96056    0.12488    0.12765    1.000
    N5553    N        0.93453    0.05732    0.24917    1.000
    Si5554   Si       0.96826    0.20884    0.22027    1.000
    N5555    N        0.94112    0.23603    0.24076    1.000
    Si5556   Si       0.94258    0.24262    0.15270    1.000
    N5557    N        0.96732    0.21803    0.17856    1.000
    N5558    N        0.97102    0.15015    0.16130    1.000
    Si5559   Si       0.94520    0.14726    0.19808    1.000
    N5560    N        0.95841    0.16879    0.23341    1.000
    Si5561   Si       0.98913    0.18873    0.15610    1.000
    N5562    N        0.95070    0.05551    0.31686    1.000
    N5563    N        0.97117    0.12175    0.27845    1.000
    Si5564   Si       0.93013    0.07444    0.34937    1.000
    N5565    N        0.93221    0.17361    0.30191    1.000
    Si5566   Si       0.94199    0.14872    0.26723    1.000
    N5567    N        0.96074    0.19831    0.35975    1.000
    Si5568   Si       0.96908    0.18265    0.32185    1.000
    N5569    N        0.96022    0.09340    0.37243    1.000
    N5570    N        0.98128    0.12626    0.47136    1.000
    Si5571   Si       0.98003    0.02304    0.48294    1.000
    Si5572   Si       0.94521    0.12403    0.40244    1.000
    N5573    N        0.95119    0.05349    0.46832    1.000
    Si5574   Si       0.95035    0.09774    0.46929    1.000
    Si5575   Si       0.94002    0.25822    0.40201    1.000
    N5576    N        0.97923    0.23865    0.41121    1.000
    N5577    N        0.98052    0.14871    0.40998    1.000
    N5578    N        0.98601    0.19700    0.46517    1.000
    Si5579   Si       0.95501    0.05585    0.59808    1.000
    Si5580   Si       0.93790    0.08220    0.53406    1.000
    N5581    N        0.98117    0.08941    0.52838    1.000
    N5582    N        0.93385    0.08580    0.57556    1.000
    N5583    N        0.95776    0.01387    0.58989    1.000
    N5584    N        0.96759    0.23267    0.53051    1.000
    Si5585   Si       0.97005    0.19621    0.50459    1.000
    N5586    N        0.95903    0.13716    0.62118    1.000
    N5587    N        0.95491    0.06568    0.70791    1.000
    Si5588   Si       0.96238    0.04714    0.66959    1.000
    N5589    N        0.93704    0.06234    0.63778    1.000
    Si5590   Si       0.97738    0.04755    0.74118    1.000
    Si5591   Si       0.97725    0.22266    0.69936    1.000
    Si5592   Si       0.98550    0.15866    0.72178    1.000
    N5593    N        0.98054    0.20084    0.73760    1.000
    Si5594   Si       0.95133    0.16149    0.65766    1.000
    N5595    N        0.98278    0.19203    0.66684    1.000
    N5596    N        0.95373    0.13763    0.69520    1.000
    N5597    N        0.93892    0.24380    0.68981    1.000
    N5598    N        0.95324    0.10484    0.80589    1.000
    N5599    N        0.96478    0.03559    0.83217    1.000
    Si5600   Si       0.94123    0.06262    0.80551    1.000
    N5601    N        0.94034    0.04308    0.76803    1.000
    Si5602   Si       0.93561    0.12201    0.84303    1.000
    N5603    N        0.97957    0.13447    0.75631    1.000
    Si5604   Si       0.93863    0.13466    0.77381    1.000
    N5605    N        0.96697    0.22884    0.80814    1.000
    Si5606   Si       0.97434    0.24691    0.84770    1.000
    N5607    N        0.96385    0.15211    0.85782    1.000
    Si5608   Si       0.98619    0.23235    0.76866    1.000
    N5609    N        0.93498    0.09755    0.87769    1.000
    N5610    N        0.97665    0.05522    0.91698    1.000
    Si5611   Si       0.94836    0.02423    0.91756    1.000
    N5612    N        0.95443    0.11775    0.93822    1.000
    Si5613   Si       0.96199    0.09881    0.97552    1.000
    Si5614   Si       0.96968    0.09587    0.90436    1.000
    N5615    N        0.98519    0.06475    0.98328    1.000
    Si5616   Si       0.96779    0.02556    0.99040    1.000
    N5617    N        0.94673    0.00782    0.95759    1.000
    Si5618   Si       0.98775    0.23259    0.91788    1.000
    N5619    N        0.95376    0.24023    0.94234    1.000
    Si5620   Si       0.94478    0.18609    0.87564    1.000
    N5621    N        0.97517    0.21688    0.87918    1.000
    Si5622   Si       0.95746    0.28421    0.04881    1.000
    N5623    N        0.96886    0.37479    0.05518    1.000
    Si5624   Si       0.97413    0.33474    0.07674    1.000
    N5625    N        0.93730    0.31160    0.07381    1.000
    N5626    N        0.93680    0.27390    0.01079    1.000
    N5627    N        0.96410    0.44212    0.08529    1.000
    N5628    N        0.96849    0.46630    0.02034    1.000
    Si5629   Si       0.95933    0.47817    0.06088    1.000
    Si5630   Si       0.97477    0.40290    0.09139    1.000
    N5631    N        0.97162    0.26647    0.13021    1.000
    N5632    N        0.95669    0.31776    0.17369    1.000
    Si5633   Si       0.96565    0.33342    0.21352    1.000
    N5634    N        0.95356    0.37703    0.20889    1.000
    Si5635   Si       0.98136    0.30625    0.14207    1.000
    N5636    N        0.94435    0.30723    0.24188    1.000
    N5637    N        0.95604    0.38650    0.13016    1.000
    N5638    N        0.95244    0.43731    0.17498    1.000
    Si5639   Si       0.97556    0.47320    0.18164    1.000
    N5640    N        0.95036    0.50365    0.20094    1.000
    Si5641   Si       0.96784    0.39707    0.17057    1.000
    N5642    N        0.97586    0.49663    0.14336    1.000
    Si5643   Si       0.96502    0.39930    0.24551    1.000
    Si5644   Si       0.95483    0.33480    0.35088    1.000
    Si5645   Si       0.95836    0.27128    0.26401    1.000
    N5646    N        0.98362    0.36462    0.34078    1.000
    N5647    N        0.92968    0.32389    0.31682    1.000
    N5648    N        0.97754    0.30132    0.36841    1.000
    N5649    N        0.94096    0.38624    0.27870    1.000
    Si5650   Si       0.96456    0.47277    0.33966    1.000
    N5651    N        0.95577    0.43452    0.32211    1.000
    N5652    N        0.94643    0.44173    0.24827    1.000
    N5653    N        0.93498    0.50056    0.32248    1.000
    Si5654   Si       0.93563    0.33540    0.42086    1.000
    N5655    N        0.97718    0.27124    0.47220    1.000
    N5656    N        0.97549    0.34717    0.43124    1.000
    Si5657   Si       0.93621    0.28390    0.47131    1.000
    N5658    N        0.92852    0.29100    0.42861    1.000
    N5659    N        0.94570    0.47401    0.37766    1.000
    N5660    N        0.93805    0.42024    0.42837    1.000
    Si5661   Si       0.96484    0.45203    0.41241    1.000
    N5662    N        0.95161    0.48004    0.44400    1.000
    N5663    N        0.95936    0.34569    0.55139    1.000
    Si5664   Si       0.95266    0.35292    0.50898    1.000
    N5665    N        0.95420    0.33189    0.61231    1.000
    Si5666   Si       0.96093    0.28687    0.61502    1.000
    Si5667   Si       0.98766    0.35130    0.58268    1.000
    Si5668   Si       0.95174    0.42399    0.52810    1.000
    N5669    N        0.97761    0.45702    0.60634    1.000
    Si5670   Si       0.97203    0.50132    0.59628    1.000
    N5671    N        0.96633    0.49969    0.55320    1.000
    N5672    N        0.93305    0.45203    0.50245    1.000
    N5673    N        0.93245    0.44284    0.56397    1.000
    Si5674   Si       0.93107    0.45487    0.61041    1.000
    N5675    N        0.94698    0.31816    0.70237    1.000
    Si5676   Si       0.96150    0.33135    0.66095    1.000
    Si5677   Si       0.93868    0.27729    0.71654    1.000
    N5678    N        0.98045    0.29109    0.65380    1.000
    N5679    N        0.97017    0.26762    0.74684    1.000
    N5680    N        0.93685    0.44582    0.65497    1.000
    N5681    N        0.93745    0.39079    0.72796    1.000
    Si5682   Si       0.97827    0.45277    0.65216    1.000
    N5683    N        0.95462    0.34110    0.76548    1.000
    N5684    N        0.94465    0.35317    0.82800    1.000
    N5685    N        0.94677    0.27672    0.86012    1.000
    Si5686   Si       0.98223    0.30975    0.75326    1.000
    Si5687   Si       0.98743    0.34369    0.81618    1.000
    Si5688   Si       0.97067    0.38379    0.75641    1.000
    N5689    N        0.96279    0.44405    0.84114    1.000
    N5690    N        0.95010    0.41697    0.78242    1.000
    N5691    N        0.94379    0.48863    0.79393    1.000
    Si5692   Si       0.98293    0.48178    0.86031    1.000
    Si5693   Si       0.98572    0.41581    0.81302    1.000
    Si5694   Si       0.93147    0.49070    0.75168    1.000
    N5695    N        0.98012    0.37840    0.98436    1.000
    Si5696   Si       0.96694    0.25700    0.98243    1.000
    Si5697   Si       0.93567    0.38092    0.98093    1.000
    Si5698   Si       0.97940    0.42204    0.88215    1.000
    Si5699   Si       0.94297    0.45257    0.98761    1.000
    N5700    N        0.98792    0.46152    0.90036    1.000
    N5701    N        0.95594    0.48869    0.95662    1.000
    N5702    N        0.94573    0.39354    0.89118    1.000
    Si5703   Si       0.98676    0.40742    0.95144    1.000
    N5704    N        0.94245    0.41825    0.95507    1.000
    N5705    N        0.96213    0.57284    0.06133    1.000
    Si5706   Si       0.96023    0.61300    0.08522    1.000
    Si5707   Si       0.93544    0.62216    0.01573    1.000
    N5708    N        0.94196    0.61188    0.12532    1.000
    N5709    N        0.98846    0.51028    0.07327    1.000
    N5710    N        0.94251    0.64017    0.05386    1.000
    N5711    N        0.93951    0.69566    0.09155    1.000
    N5712    N        0.95254    0.70663    0.02552    1.000
    Si5713   Si       0.93862    0.74498    0.01029    1.000
    Si5714   Si       0.98159    0.69951    0.10291    1.000
    Si5715   Si       0.94979    0.52715    0.16082    1.000
    Si5716   Si       0.96769    0.54031    0.22299    1.000
    N5717    N        0.97037    0.56221    0.18299    1.000
    N5718    N        0.94985    0.57721    0.23945    1.000
    Si5719   Si       0.94207    0.59375    0.19956    1.000
    N5720    N        0.98749    0.72861    0.20674    1.000
    N5721    N        0.94007    0.75652    0.23643    1.000
    N5722    N        0.93456    0.75268    0.15899    1.000
    Si5723   Si       0.95750    0.75889    0.19595    1.000
    N5724    N        0.95475    0.63646    0.19842    1.000
    Si5725   Si       0.95803    0.64404    0.15322    1.000
    N5726    N        0.96548    0.57120    0.31448    1.000
    Si5727   Si       0.93785    0.58675    0.28069    1.000
    Si5728   Si       0.94131    0.57202    0.34977    1.000
    N5729    N        0.96112    0.51682    0.26260    1.000
    N5730    N        0.93214    0.62999    0.28809    1.000
    N5731    N        0.95366    0.70178    0.27233    1.000
    Si5732   Si       0.96176    0.66043    0.28212    1.000
    N5733    N        0.95883    0.74668    0.33549    1.000
    Si5734   Si       0.94010    0.71571    0.31157    1.000
    Si5735   Si       0.97532    0.73262    0.24898    1.000
    N5736    N        0.96861    0.58024    0.38502    1.000
    Si5737   Si       0.95236    0.51358    0.46883    1.000
    Si5738   Si       0.93534    0.56551    0.41143    1.000
    Si5739   Si       0.93323    0.62879    0.45872    1.000
    N5740    N        0.97727    0.63259    0.46434    1.000
    Si5741   Si       0.98729    0.74643    0.45063    1.000
    Si5742   Si       0.95598    0.75361    0.37871    1.000
    N5743    N        0.96421    0.65544    0.39195    1.000
    N5744    N        0.93517    0.71669    0.39370    1.000
    Si5745   Si       0.95255    0.68771    0.42161    1.000
    N5746    N        0.98535    0.70142    0.44642    1.000
    N5747    N        0.96686    0.57259    0.51441    1.000
    Si5748   Si       0.97675    0.52972    0.52388    1.000
    Si5749   Si       0.93466    0.59647    0.52753    1.000
    N5750    N        0.93167    0.51789    0.50728    1.000
    N5751    N        0.94734    0.63367    0.54947    1.000
    N5752    N        0.95834    0.71193    0.56784    1.000
    Si5753   Si       0.97235    0.71750    0.52710    1.000
    Si5754   Si       0.97668    0.68969    0.59973    1.000
    N5755    N        0.94694    0.66206    0.61570    1.000
    N5756    N        0.98856    0.67824    0.51452    1.000
    Si5757   Si       0.98849    0.64940    0.54674    1.000
    N5758    N        0.95894    0.58655    0.62496    1.000
    N5759    N        0.97770    0.61587    0.69766    1.000
    Si5760   Si       0.93515    0.61146    0.71105    1.000
    N5761    N        0.93342    0.56835    0.71673    1.000
    N5762    N        0.96747    0.51058    0.73491    1.000
    N5763    N        0.95359    0.72180    0.74159    1.000
    Si5764   Si       0.93146    0.68096    0.65055    1.000
    Si5765   Si       0.94784    0.72358    0.69981    1.000
    Si5766   Si       0.97533    0.74488    0.63789    1.000
    N5767    N        0.93601    0.72232    0.63522    1.000
    N5768    N        0.97876    0.74946    0.68131    1.000
    N5769    N        0.95597    0.68155    0.68629    1.000
    N5770    N        0.94859    0.55554    0.78620    1.000
    Si5771   Si       0.96511    0.58321    0.81584    1.000
    Si5772   Si       0.94426    0.52345    0.81733    1.000
    N5773    N        0.98083    0.62618    0.80954    1.000
    N5774    N        0.93697    0.58261    0.84760    1.000
    N5775    N        0.95721    0.51415    0.85700    1.000
    Si5776   Si       0.96363    0.55023    0.74539    1.000
    Si5777   Si       0.96914    0.64919    0.77545    1.000
    N5778    N        0.96003    0.68545    0.80318    1.000
    Si5779   Si       0.96195    0.65921    0.83880    1.000
    N5780    N        0.98543    0.74684    0.79666    1.000
    Si5781   Si       0.93012    0.70887    0.77660    1.000
    N5782    N        0.93527    0.63401    0.75065    1.000
    Si5783   Si       0.98583    0.57289    0.97299    1.000
    N5784    N        0.96652    0.56510    0.93346    1.000
    N5785    N        0.96524    0.60117    0.99487    1.000
    N5786    N        0.93151    0.72769    0.96892    1.000
    N5787    N        0.96468    0.67266    0.93769    1.000
    N5788    N        0.93662    0.65800    0.87480    1.000
    Si5789   Si       0.95277    0.64103    0.91254    1.000
    Si5790   Si       0.95298    0.68953    0.97750    1.000
    N5791    N        0.95813    0.77752    0.02955    1.000
    N5792    N        0.95902    0.83870    0.07073    1.000
    Si5793   Si       0.97583    0.87215    0.04930    1.000
    Si5794   Si       0.93635    0.80337    0.05707    1.000
    Si5795   Si       0.95645    0.84224    0.11450    1.000
    N5796    N        0.95129    0.90598    0.04597    1.000
    N5797    N        0.96456    0.97623    0.05941    1.000
    N5798    N        0.96551    0.94122    0.10925    1.000
    Si5799   Si       0.95819    0.98669    0.10420    1.000
    Si5800   Si       0.97698    0.93329    0.06894    1.000
    Si5801   Si       0.95800    0.76813    0.12393    1.000
    Si5802   Si       0.96612    0.82599    0.17719    1.000
    N5803    N        0.97299    0.80738    0.13502    1.000
    N5804    N        0.96622    0.86164    0.20378    1.000
    N5805    N        0.98144    0.79289    0.19687    1.000
    N5806    N        0.98044    0.87096    0.13947    1.000
    Si5807   Si       0.93130    0.93389    0.13247    1.000
    N5808    N        0.98650    0.00352    0.13501    1.000
    Si5809   Si       0.97291    0.95564    0.23049    1.000
    N5810    N        0.93531    0.91393    0.17152    1.000
    Si5811   Si       0.95468    0.00188    0.16774    1.000
    N5812    N        0.97167    0.99329    0.21014    1.000
    Si5813   Si       0.97338    0.89494    0.17767    1.000
    N5814    N        0.92979    0.94418    0.23291    1.000
    Si5815   Si       0.94834    0.83730    0.30744    1.000
    N5816    N        0.95332    0.84857    0.26621    1.000
    N5817    N        0.95720    0.86941    0.33540    1.000
    N5818    N        0.98314    0.81145    0.30491    1.000
    N5819    N        0.94871    0.95138    0.33038    1.000
    Si5820   Si       0.97077    0.97736    0.30227    1.000
    Si5821   Si       0.97499    0.93864    0.36185    1.000
    N5822    N        0.93926    0.99579    0.27997    1.000
    Si5823   Si       0.92666    0.88156    0.36239    1.000
    Si5824   Si       0.95382    0.85710    0.45687    1.000
    Si5825   Si       0.95273    0.79800    0.42695    1.000
    N5826    N        0.97875    0.83345    0.42756    1.000
    N5827    N        0.94785    0.76314    0.45740    1.000
    N5828    N        0.98668    0.76383    0.40849    1.000
    Si5829   Si       0.96768    0.98489    0.42117    1.000
    Si5830   Si       0.97533    0.93079    0.47747    1.000
    N5831    N        0.95220    0.90979    0.38573    1.000
    N5832    N        0.98531    0.88856    0.46408    1.000
    Si5833   Si       0.93069    0.92096    0.42267    1.000
    N5834    N        0.96003    0.94781    0.44135    1.000
    N5835    N        0.98776    0.97383    0.38195    1.000
    Si5836   Si       0.95505    0.84015    0.54455    1.000
    Si5837   Si       0.93840    0.80323    0.60682    1.000
    N5838    N        0.97533    0.78119    0.61294    1.000
    N5839    N        0.94399    0.88091    0.55901    1.000
    N5840    N        0.94742    0.84490    0.50200    1.000
    Si5841   Si       0.96442    0.91755    0.54554    1.000
    N5842    N        0.97219    0.95114    0.57278    1.000
    N5843    N        0.94594    0.92980    0.50994    1.000
    Si5844   Si       0.97755    0.99077    0.55669    1.000
    Si5845   Si       0.94741    0.98409    0.61876    1.000
    N5846    N        0.96577    0.00449    0.51906    1.000
    N5847    N        0.94816    0.84280    0.62612    1.000
    Si5848   Si       0.95035    0.82463    0.73191    1.000
    N5849    N        0.99064    0.83529    0.72604    1.000
    Si5850   Si       0.98718    0.86021    0.63276    1.000
    N5851    N        0.98444    0.89844    0.74642    1.000
    N5852    N        0.95374    0.00315    0.66319    1.000
    N5853    N        0.98563    0.88105    0.67191    1.000
    N5854    N        0.96747    0.94572    0.70059    1.000
    Si5855   Si       0.96467    0.93778    0.74280    1.000
    N5856    N        0.97639    0.95006    0.63678    1.000
    Si5857   Si       0.96106    0.91731    0.66586    1.000
    Si5858   Si       0.98557    0.97458    0.67294    1.000
    Si5859   Si       0.97002    0.87272    0.77954    1.000
    Si5860   Si       0.97714    0.82959    0.83425    1.000
    N5861    N        0.94376    0.78821    0.75714    1.000
    N5862    N        0.93578    0.85374    0.76095    1.000
    N5863    N        0.93379    0.82706    0.83053    1.000
    N5864    N        0.98433    0.86194    0.85995    1.000
    N5865    N        0.98711    0.79094    0.85196    1.000
    Si5866   Si       0.97482    0.75774    0.75711    1.000
    N5867    N        0.94625    0.89429    0.80762    1.000
    N5868    N        0.94645    0.97083    0.82124    1.000
    Si5869   Si       0.97101    0.89854    0.84416    1.000
    Si5870   Si       0.94072    0.00417    0.84996    1.000
    N5871    N        0.97110    0.83740    0.94755    1.000
    N5872    N        0.94879    0.78849    0.90440    1.000
    Si5873   Si       0.97176    0.87104    0.97291    1.000
    Si5874   Si       0.93537    0.82278    0.92942    1.000
    Si5875   Si       0.98642    0.77263    0.89280    1.000
    N5876    N        0.93474    0.94269    0.93725    1.000
    Si5877   Si       0.95607    0.94836    0.90128    1.000
    N5878    N        0.94288    0.92036    0.87128    1.000
    N5879    N        0.95304    0.99044    0.89050    1.000
