# CIF file generated by openbabel 3.1.1, see https://openbabel.org
data_I
_chemical_name_common '3.01-60.aims'
_cell_length_a 39.9195
_cell_length_b 39.9195
_cell_length_c 39.9195
_cell_angle_alpha 90
_cell_angle_beta 90
_cell_angle_gamma 90
loop_
    _atom_site_label
    _atom_site_type_symbol
    _atom_site_fract_x
    _atom_site_fract_y
    _atom_site_fract_z
    _atom_site_occupancy
    N0       N        0.04134    0.13281    0.08404    1.000
    Si1      Si       0.00686    0.14195    0.10950    1.000
    N2       N        0.01727    0.14759    0.01936    1.000
    N3       N        0.00367    0.18577    0.11541    1.000
    N4       N        0.03819    0.25197    0.11101    1.000
    Si5      Si       0.99376    0.02326    0.14372    1.000
    Si6      Si       0.04195    0.10829    0.16438    1.000
    N7       N        0.03087    0.04536    0.14811    1.000
    N8       N        0.00422    0.11431    0.14210    1.000
    Si9      Si       0.02806    0.03921    0.19532    1.000
    N10      N        0.03893    0.08502    0.20006    1.000
    Si11     Si       0.02896    0.08299    0.24253    1.000
    N12      N        0.00651    0.04568    0.23678    1.000
    N13      N        0.04744    0.17712    0.23469    1.000
    Si14     Si       0.03022    0.17397    0.19480    1.000
    Si15     Si       0.03573    0.21143    0.12906    1.000
    N16      N        0.02958    0.21175    0.17255    1.000
    N17      N        0.03650    0.24616    0.23565    1.000
    N18      N        0.99952    0.14700    0.20940    1.000
    N19      N        0.02570    0.06452    0.32171    1.000
    N20      N        0.01766    0.11292    0.27182    1.000
    Si21     Si       0.02278    0.10775    0.31470    1.000
    Si22     Si       0.02745    0.05232    0.36394    1.000
    Si23     Si       0.99969    0.01312    0.26523    1.000
    N24      N        0.98881    0.11944    0.34301    1.000
    Si25     Si       0.00366    0.21004    0.30089    1.000
    Si26     Si       0.01744    0.15086    0.25047    1.000
    N27      N        0.99450    0.17724    0.27522    1.000
    N28      N        0.04509    0.22744    0.36799    1.000
    N29      N        0.04686    0.21101    0.30074    1.000
    N30      N        0.99303    0.02480    0.37285    1.000
    Si31     Si       0.00228    0.11963    0.38311    1.000
    Si32     Si       0.00134    0.05151    0.48325    1.000
    N33      N        0.02869    0.08660    0.39160    1.000
    N34      N        0.04216    0.05817    0.49304    1.000
    Si35     Si       0.02786    0.16713    0.42528    1.000
    Si36     Si       0.00192    0.22510    0.37668    1.000
    N37      N        0.04595    0.23621    0.48472    1.000
    Si38     Si       0.01353    0.22186    0.45172    1.000
    N39      N        0.99873    0.20048    0.41336    1.000
    N40      N        0.03552    0.15080    0.38437    1.000
    N41      N        0.01110    0.18046    0.47120    1.000
    N42      N        0.04649    0.13247    0.44598    1.000
    N43      N        0.03368    0.08760    0.55306    1.000
    N44      N        0.99759    0.04025    0.59086    1.000
    Si45     Si       0.99637    0.06515    0.55612    1.000
    Si46     Si       0.03412    0.13069    0.55839    1.000
    N47      N        0.98706    0.03952    0.52280    1.000
    N48      N        0.02022    0.13968    0.51890    1.000
    Si49     Si       0.00104    0.19074    0.57537    1.000
    N50      N        0.01149    0.14903    0.59067    1.000
    N51      N        0.03313    0.21523    0.56125    1.000
    Si52     Si       0.03687    0.24110    0.52765    1.000
    Si53     Si       0.03466    0.04397    0.69332    1.000
    N54      N        0.99330    0.03921    0.68764    1.000
    N55      N        0.04894    0.12204    0.68624    1.000
    Si56     Si       0.03499    0.21204    0.72140    1.000
    N57      N        0.00511    0.24031    0.70907    1.000
    Si58     Si       0.02729    0.15815    0.68338    1.000
    N59      N        0.01179    0.17398    0.72234    1.000
    N60      N        0.04414    0.23132    0.62819    1.000
    Si61     Si       0.02904    0.09702    0.79548    1.000
    N62      N        0.03388    0.12591    0.76121    1.000
    N63      N        0.01484    0.01559    0.76388    1.000
    N64      N        0.02980    0.12362    0.82773    1.000
    N65      N        0.00989    0.17948    0.86393    1.000
    N66      N        0.02999    0.23478    0.83000    1.000
    Si67     Si       0.01512    0.22228    0.78859    1.000
    Si68     Si       0.00141    0.15563    0.75975    1.000
    Si69     Si       0.99886    0.15538    0.82936    1.000
    N70      N        0.00315    0.18107    0.79413    1.000
    N71      N        0.99071    0.12971    0.95517    1.000
    N72      N        0.03308    0.11034    0.89561    1.000
    Si73     Si       0.01975    0.07364    0.97701    1.000
    Si74     Si       0.00309    0.02643    0.93656    1.000
    N75      N        0.01947    0.02713    0.89215    1.000
    N76      N        0.02126    0.02922    0.97885    1.000
    N77      N        0.01063    0.06987    0.93469    1.000
    Si78     Si       0.04358    0.06550    0.90172    1.000
    Si79     Si       0.99361    0.10556    0.91613    1.000
    Si80     Si       0.02249    0.21445    0.95420    1.000
    N81      N        0.01133    0.22652    0.99574    1.000
    Si82     Si       0.02550    0.14374    0.97607    1.000
    N83      N        0.02528    0.34844    0.05232    1.000
    Si84     Si       0.00004    0.27390    0.11635    1.000
    Si85     Si       0.02920    0.31461    0.02323    1.000
    N86      N        0.03448    0.27460    0.04261    1.000
    N87      N        0.00154    0.31291    0.09703    1.000
    Si88     Si       0.04192    0.33613    0.09837    1.000
    Si89     Si       0.98719    0.34873    0.07188    1.000
    N90      N        0.98648    0.38229    0.09909    1.000
    Si91     Si       0.01254    0.42986    0.01132    1.000
    N92      N        0.02277    0.41912    0.05304    1.000
    Si93     Si       0.00509    0.42269    0.09439    1.000
    N94      N        0.03415    0.46674    0.00239    1.000
    N95      N        0.00328    0.28130    0.15894    1.000
    N96      N        0.03052    0.33412    0.20074    1.000
    Si97     Si       0.04049    0.30252    0.16906    1.000
    Si98     Si       0.03388    0.36650    0.16740    1.000
    Si99     Si       0.99539    0.33696    0.22713    1.000
    N100     N        0.99418    0.37927    0.23776    1.000
    N101     N        0.99322    0.38055    0.16543    1.000
    Si102    Si       0.00654    0.45721    0.16696    1.000
    N103     N        0.01475    0.49600    0.18501    1.000
    Si104    Si       0.99140    0.50460    0.22093    1.000
    Si105    Si       0.02750    0.41113    0.23738    1.000
    N106     N        0.00779    0.43172    0.20241    1.000
    N107     N        0.02331    0.44606    0.12684    1.000
    N108     N        0.02685    0.31997    0.33416    1.000
    N109     N        0.00075    0.30668    0.26187    1.000
    Si110    Si       0.02874    0.34452    0.37309    1.000
    N111     N        0.99335    0.37024    0.37118    1.000
    Si112    Si       0.99356    0.31649    0.30406    1.000
    Si113    Si       0.00010    0.26397    0.24928    1.000
    N114     N        0.01603    0.50559    0.25657    1.000
    N115     N        0.02041    0.41743    0.27956    1.000
    Si116    Si       0.01070    0.49778    0.30141    1.000
    N117     N        0.03647    0.41939    0.35221    1.000
    Si118    Si       0.99741    0.41367    0.36976    1.000
    Si119    Si       0.04448    0.43223    0.31164    1.000
    N120     N        0.04624    0.47540    0.31077    1.000
    N121     N        0.01519    0.30248    0.47281    1.000
    Si122    Si       0.00103    0.28701    0.41885    1.000
    N123     N        0.02238    0.32584    0.41096    1.000
    Si124    Si       0.01229    0.34093    0.45219    1.000
    N125     N        0.04277    0.36951    0.46557    1.000
    Si126    Si       0.04933    0.27591    0.46608    1.000
    N127     N        0.03268    0.25669    0.42829    1.000
    N128     N        0.04406    0.43841    0.47213    1.000
    Si129    Si       0.03796    0.43914    0.42834    1.000
    N130     N        0.00105    0.43332    0.40795    1.000
    Si131    Si       0.03403    0.40290    0.49255    1.000
    Si132    Si       0.01203    0.29921    0.56027    1.000
    N133     N        0.00491    0.26968    0.53046    1.000
    Si134    Si       0.03865    0.37122    0.55833    1.000
    N135     N        0.03973    0.28078    0.58896    1.000
    N136     N        0.04003    0.32905    0.54898    1.000
    N137     N        0.99539    0.37613    0.55818    1.000
    N138     N        0.02420    0.42946    0.57539    1.000
    Si139    Si       0.01531    0.46255    0.60259    1.000
    N140     N        0.01386    0.49216    0.57091    1.000
    N141     N        0.03311    0.50864    0.50049    1.000
    N142     N        0.99195    0.41274    0.50300    1.000
    Si143    Si       0.99200    0.41728    0.54673    1.000
    Si144    Si       0.04439    0.50697    0.54611    1.000
    N145     N        0.99044    0.36822    0.73493    1.000
    Si146    Si       0.02776    0.34149    0.72877    1.000
    N147     N        0.00722    0.30342    0.72253    1.000
    N148     N        0.00434    0.28344    0.65024    1.000
    Si149    Si       0.01818    0.27635    0.69079    1.000
    N150     N        0.01394    0.37875    0.63691    1.000
    Si151    Si       0.04340    0.27553    0.63264    1.000
    Si152    Si       0.04351    0.38222    0.66883    1.000
    N153     N        0.02405    0.41279    0.69565    1.000
    Si154    Si       0.02306    0.26979    0.85292    1.000
    N155     N        0.01517    0.35384    0.86579    1.000
    N156     N        0.04275    0.35188    0.77110    1.000
    N157     N        0.99404    0.29313    0.83215    1.000
    Si158    Si       0.04835    0.37722    0.85401    1.000
    N159     N        0.04028    0.40588    0.82137    1.000
    Si160    Si       0.02176    0.38747    0.78527    1.000
    N161     N        0.02387    0.42393    0.76317    1.000
    N162     N        0.99982    0.49331    0.83755    1.000
    Si163    Si       0.03273    0.50074    0.86917    1.000
    Si164    Si       0.01340    0.50624    0.79847    1.000
    N165     N        0.00467    0.26683    0.89471    1.000
    N166     N        0.99912    0.37646    0.93436    1.000
    Si167    Si       0.99394    0.36564    0.97805    1.000
    N168     N        0.03291    0.31517    0.92803    1.000
    Si169    Si       0.00653    0.34173    0.90819    1.000
    N170     N        0.99436    0.32427    0.99622    1.000
    Si171    Si       0.04521    0.27562    0.91150    1.000
    N172     N        0.00541    0.50168    0.95285    1.000
    Si173    Si       0.01280    0.50380    0.99611    1.000
    N174     N        0.02466    0.39179    0.99282    1.000
    N175     N        0.00502    0.47028    0.88942    1.000
    Si176    Si       0.02892    0.60758    0.05886    1.000
    Si177    Si       0.02841    0.52977    0.09424    1.000
    N178     N        0.03607    0.56537    0.07032    1.000
    N179     N        0.02535    0.54662    0.00090    1.000
    N180     N        0.99261    0.61481    0.03610    1.000
    N181     N        0.00848    0.67826    0.02020    1.000
    Si182    Si       0.01647    0.67950    0.06252    1.000
    N183     N        0.03157    0.72201    0.06667    1.000
    N184     N        0.04300    0.64641    0.07407    1.000
    Si185    Si       0.00193    0.75499    0.06480    1.000
    N186     N        0.03756    0.54233    0.13463    1.000
    Si187    Si       0.01487    0.61477    0.16406    1.000
    N188     N        0.01886    0.61657    0.20567    1.000
    Si189    Si       0.04623    0.61202    0.23821    1.000
    N190     N        0.99376    0.64927    0.14826    1.000
    N191     N        0.00382    0.71951    0.14486    1.000
    N192     N        0.00441    0.68492    0.20832    1.000
    Si193    Si       0.99694    0.64826    0.22972    1.000
    Si194    Si       0.01494    0.71674    0.23630    1.000
    N195     N        0.01744    0.75482    0.21630    1.000
    N196     N        0.01341    0.53863    0.31858    1.000
    Si197    Si       0.01304    0.57549    0.29431    1.000
    N198     N        0.02706    0.60475    0.32350    1.000
    Si199    Si       0.00744    0.55484    0.35865    1.000
    N200     N        0.03802    0.57558    0.25873    1.000
    Si201    Si       0.00926    0.64156    0.30988    1.000
    N202     N        0.02298    0.75150    0.31854    1.000
    N203     N        0.02014    0.64048    0.26553    1.000
    Si204    Si       0.00098    0.71533    0.30909    1.000
    N205     N        0.02672    0.68010    0.31677    1.000
    Si206    Si       0.03292    0.75237    0.36023    1.000
    N207     N        0.02753    0.54859    0.44089    1.000
    N208     N        0.00192    0.61422    0.42660    1.000
    Si209    Si       0.03422    0.58526    0.41963    1.000
    Si210    Si       0.02601    0.54894    0.48537    1.000
    N211     N        0.00020    0.51608    0.37895    1.000
    N212     N        0.04459    0.57255    0.37857    1.000
    Si213    Si       0.01570    0.50974    0.41974    1.000
    Si214    Si       0.02793    0.63619    0.45370    1.000
    N215     N        0.02947    0.67238    0.42852    1.000
    N216     N        0.04075    0.70367    0.48381    1.000
    N217     N        0.04033    0.71070    0.37527    1.000
    Si218    Si       0.01942    0.70955    0.44567    1.000
    N219     N        0.04150    0.74663    0.44020    1.000
    Si220    Si       0.02696    0.66861    0.38593    1.000
    N221     N        0.02329    0.64035    0.49687    1.000
    N222     N        0.02390    0.55132    0.55267    1.000
    Si223    Si       0.00127    0.58903    0.55201    1.000
    Si224    Si       0.99456    0.53015    0.58253    1.000
    N225     N        0.04201    0.60891    0.56157    1.000
    N226     N        0.03869    0.69992    0.60626    1.000
    Si227    Si       0.01944    0.71740    0.51748    1.000
    N228     N        0.04370    0.73673    0.54704    1.000
    Si229    Si       0.99916    0.70091    0.62253    1.000
    Si230    Si       0.04511    0.52448    0.63241    1.000
    N231     N        0.00289    0.53481    0.62563    1.000
    N232     N        0.99560    0.55544    0.72610    1.000
    N233     N        0.02429    0.60155    0.62956    1.000
    N234     N        0.99610    0.61846    0.69354    1.000
    N235     N        0.99295    0.74400    0.62640    1.000
    Si236    Si       0.00854    0.63688    0.65536    1.000
    N237     N        0.99419    0.67982    0.66035    1.000
    N238     N        0.03125    0.66998    0.73444    1.000
    N239     N        0.99386    0.73384    0.74443    1.000
    Si240    Si       0.03288    0.63152    0.71390    1.000
    N241     N        0.01834    0.54754    0.78651    1.000
    N242     N        0.00236    0.58682    0.83986    1.000
    Si243    Si       0.03722    0.56833    0.82084    1.000
    Si244    Si       0.03227    0.56466    0.74863    1.000
    Si245    Si       0.02741    0.74928    0.76704    1.000
    N246     N        0.01719    0.71028    0.85414    1.000
    Si247    Si       0.02414    0.69362    0.81341    1.000
    Si248    Si       0.99478    0.68894    0.75132    1.000
    N249     N        0.99024    0.68179    0.79343    1.000
    Si250    Si       0.00467    0.74797    0.87159    1.000
    N251     N        0.04596    0.71281    0.78224    1.000
    N252     N        0.03583    0.56815    0.94117    1.000
    Si253    Si       0.02897    0.52757    0.92713    1.000
    Si254    Si       0.01552    0.57641    0.88230    1.000
    N255     N        0.00529    0.53369    0.88931    1.000
    Si256    Si       0.01180    0.58084    0.97672    1.000
    N257     N        0.01221    0.62530    0.97165    1.000
    N258     N        0.01716    0.74728    0.98249    1.000
    Si259    Si       0.03437    0.65081    0.94326    1.000
    Si260    Si       0.03823    0.67735    0.87269    1.000
    N261     N        0.99996    0.74519    0.91499    1.000
    Si262    Si       0.01441    0.70347    0.98518    1.000
    N263     N        0.01430    0.65699    0.90267    1.000
    Si264    Si       0.01867    0.83027    0.04069    1.000
    N265     N        0.00964    0.78819    0.03803    1.000
    N266     N        0.99538    0.77258    0.10338    1.000
    N267     N        0.00297    0.84855    0.00204    1.000
    N268     N        0.02133    0.83198    0.11539    1.000
    Si269    Si       0.99241    0.77896    0.99922    1.000
    Si270    Si       0.98811    0.85638    0.10368    1.000
    N271     N        0.99692    0.89894    0.10833    1.000
    Si272    Si       0.01133    0.93249    0.03215    1.000
    N273     N        0.01488    0.95849    0.06743    1.000
    Si274    Si       0.01807    0.00088    0.07554    1.000
    Si275    Si       0.99640    0.94363    0.10617    1.000
    N276     N        0.04550    0.90623    0.02888    1.000
    N277     N        0.98909    0.99551    0.11307    1.000
    N278     N        0.01263    0.96048    0.99961    1.000
    Si279    Si       0.03795    0.99462    0.99760    1.000
    Si280    Si       0.02819    0.79001    0.12410    1.000
    N281     N        0.02756    0.78369    0.16628    1.000
    Si282    Si       0.99428    0.78249    0.19515    1.000
    Si283    Si       0.02639    0.92990    0.17651    1.000
    N284     N        0.03878    0.96075    0.20699    1.000
    N285     N        0.02849    0.94728    0.13738    1.000
    N286     N        0.04384    0.89093    0.18132    1.000
    Si287    Si       0.99498    0.97213    0.20599    1.000
    N288     N        0.99632    0.01018    0.18386    1.000
    N289     N        0.02063    0.82334    0.33009    1.000
    N290     N        0.02273    0.80683    0.26251    1.000
    Si291    Si       0.02856    0.79068    0.30262    1.000
    N292     N        0.02676    0.87537    0.24968    1.000
    Si293    Si       0.99299    0.81282    0.36711    1.000
    Si294    Si       0.99945    0.84029    0.24870    1.000
    N295     N        0.00718    0.89004    0.32069    1.000
    Si296    Si       0.03933    0.89320    0.28928    1.000
    N297     N        0.01565    0.96122    0.34516    1.000
    Si298    Si       0.00641    0.91823    0.35289    1.000
    Si299    Si       0.04763    0.97065    0.31464    1.000
    N300     N        0.03319    0.00427    0.29134    1.000
    Si301    Si       0.98907    0.98102    0.37484    1.000
    Si302    Si       0.01938    0.77723    0.46413    1.000
    N303     N        0.03483    0.81712    0.46172    1.000
    N304     N        0.00178    0.77254    0.38081    1.000
    Si305    Si       0.99997    0.83330    0.44119    1.000
    N306     N        0.99835    0.84028    0.39938    1.000
    N307     N        0.02001    0.87609    0.44464    1.000
    Si308    Si       0.00518    0.88294    0.40405    1.000
    N309     N        0.00136    0.97521    0.41591    1.000
    Si310    Si       0.03951    0.97147    0.43384    1.000
    N311     N        0.03712    0.89841    0.37913    1.000
    N312     N        0.04009    0.94502    0.47158    1.000
    Si313    Si       0.02344    0.90461    0.47952    1.000
    Si314    Si       0.01497    0.82729    0.58390    1.000
    N315     N        0.00606    0.79940    0.55289    1.000
    Si316    Si       0.03810    0.77786    0.53245    1.000
    N317     N        0.00977    0.76077    0.50383    1.000
    N318     N        0.02814    0.91746    0.54011    1.000
    N319     N        0.01087    0.92343    0.61036    1.000
    Si320    Si       0.03807    0.93466    0.57824    1.000
    N321     N        0.03902    0.97534    0.57033    1.000
    Si322    Si       0.02057    0.00324    0.59919    1.000
    N323     N        0.01915    0.80756    0.62682    1.000
    N324     N        0.00377    0.82641    0.73110    1.000
    Si325    Si       0.01848    0.77023    0.64885    1.000
    Si326    Si       0.03170    0.79706    0.71564    1.000
    N327     N        0.00371    0.77523    0.68926    1.000
    Si328    Si       0.02191    0.86218    0.74952    1.000
    N329     N        0.04320    0.88321    0.71563    1.000
    N330     N        0.02787    0.98747    0.64039    1.000
    N331     N        0.00685    0.92508    0.67300    1.000
    Si332    Si       0.04339    0.92292    0.69836    1.000
    Si333    Si       0.99567    0.95653    0.64250    1.000
    Si334    Si       0.04675    0.91060    0.63301    1.000
    N335     N        0.02869    0.83642    0.83500    1.000
    Si336    Si       0.03617    0.79256    0.82742    1.000
    N337     N        0.00890    0.77362    0.79921    1.000
    N338     N        0.03717    0.77672    0.86721    1.000
    N339     N        0.05084    0.83443    0.77072    1.000
    Si340    Si       0.99452    0.90487    0.79025    1.000
    Si341    Si       0.02988    0.00254    0.85807    1.000
    N342     N        0.03577    0.89451    0.78345    1.000
    Si343    Si       0.01720    0.98013    0.79210    1.000
    N344     N        0.03389    0.96230    0.87094    1.000
    N345     N        0.99898    0.00431    0.82393    1.000
    N346     N        0.02951    0.85777    0.93934    1.000
    Si347    Si       0.02152    0.76915    0.94365    1.000
    Si348    Si       0.99432    0.84039    0.95899    1.000
    N349     N        0.99150    0.91675    0.89843    1.000
    N350     N        0.03473    0.92864    0.94738    1.000
    Si351    Si       0.02609    0.89703    0.91836    1.000
    Si352    Si       0.99648    0.94984    0.96105    1.000
    N353     N        0.99813    0.98186    0.93235    1.000
    Si354    Si       0.99865    0.96001    0.89577    1.000
    Si355    Si       0.07453    0.10539    0.09553    1.000
    N356     N        0.07211    0.06480    0.07864    1.000
    Si357    Si       0.08044    0.03729    0.04673    1.000
    N358     N        0.08318    0.05689    0.00837    1.000
    Si359    Si       0.08886    0.09977    0.00355    1.000
    Si360    Si       0.06408    0.04435    0.11950    1.000
    N361     N        0.08689    0.13223    0.03394    1.000
    Si362    Si       0.08718    0.20492    0.07878    1.000
    N363     N        0.09511    0.24686    0.06903    1.000
    N364     N        0.05432    0.19860    0.04902    1.000
    N365     N        0.08162    0.24194    0.00126    1.000
    Si366    Si       0.05084    0.15308    0.04475    1.000
    N367     N        0.07687    0.19507    0.11945    1.000
    Si368    Si       0.04578    0.23266    0.02344    1.000
    Si369    Si       0.09085    0.05358    0.22582    1.000
    N370     N        0.07210    0.09140    0.13750    1.000
    N371     N        0.06717    0.02256    0.20514    1.000
    N372     N        0.10568    0.03717    0.13248    1.000
    Si373    Si       0.10826    0.07296    0.15532    1.000
    N374     N        0.09090    0.20826    0.19224    1.000
    Si375    Si       0.05641    0.24001    0.19632    1.000
    Si376    Si       0.08784    0.17910    0.15953    1.000
    N377     N        0.05596    0.15049    0.16837    1.000
    N378     N        0.09092    0.05301    0.31575    1.000
    N379     N        0.06459    0.06557    0.25841    1.000
    Si380    Si       0.09420    0.02253    0.34848    1.000
    N381     N        0.06442    0.11745    0.32562    1.000
    Si382    Si       0.05348    0.04415    0.29376    1.000
    Si383    Si       0.10024    0.09516    0.31552    1.000
    Si384    Si       0.07097    0.14545    0.36066    1.000
    Si385    Si       0.07186    0.21286    0.33647    1.000
    N386     N        0.09621    0.17762    0.34568    1.000
    Si387    Si       0.05787    0.21266    0.25669    1.000
    N388     N        0.09972    0.22532    0.25820    1.000
    N389     N        0.06625    0.03654    0.37869    1.000
    N390     N        0.08212    0.07528    0.43944    1.000
    N391     N        0.09224    0.12082    0.39070    1.000
    Si392    Si       0.06982    0.02572    0.48405    1.000
    Si393    Si       0.07829    0.03776    0.41952    1.000
    Si394    Si       0.06140    0.10480    0.41685    1.000
    Si395    Si       0.10607    0.08673    0.47544    1.000
    N396     N        0.10730    0.04829    0.49641    1.000
    N397     N        0.05838    0.00984    0.44568    1.000
    Si398    Si       0.05038    0.14104    0.48793    1.000
    N399     N        0.10138    0.24483    0.39985    1.000
    Si400    Si       0.06304    0.23298    0.40717    1.000
    Si401    Si       0.07460    0.20503    0.47511    1.000
    N402     N        0.06207    0.19878    0.43474    1.000
    Si403    Si       0.08388    0.06146    0.59718    1.000
    N404     N        0.06157    0.02393    0.59609    1.000
    Si405    Si       0.06505    0.07591    0.52641    1.000
    N406     N        0.07334    0.10114    0.61258    1.000
    N407     N        0.09576    0.06150    0.55595    1.000
    N408     N        0.08047    0.11023    0.50463    1.000
    Si409    Si       0.09032    0.13985    0.60291    1.000
    N410     N        0.07646    0.14564    0.56415    1.000
    Si411    Si       0.09752    0.14538    0.52781    1.000
    Si412    Si       0.05953    0.23944    0.58743    1.000
    N413     N        0.10012    0.24823    0.60272    1.000
    N414     N        0.07976    0.25389    0.54096    1.000
    N415     N        0.07806    0.17215    0.50081    1.000
    N416     N        0.05401    0.05444    0.65581    1.000
    Si417    Si       0.05943    0.11056    0.72740    1.000
    Si418    Si       0.06886    0.09627    0.65586    1.000
    N419     N        0.10035    0.12512    0.72897    1.000
    N420     N        0.04957    0.06751    0.72609    1.000
    N421     N        0.09420    0.17327    0.63117    1.000
    Si422    Si       0.07455    0.20714    0.64902    1.000
    N423     N        0.05306    0.19305    0.68464    1.000
    Si424    Si       0.07837    0.04671    0.82755    1.000
    N425     N        0.06694    0.07035    0.86236    1.000
    Si426    Si       0.05704    0.11219    0.86041    1.000
    N427     N        0.08508    0.00970    0.75711    1.000
    N428     N        0.05396    0.06339    0.79454    1.000
    Si429    Si       0.05135    0.03959    0.75919    1.000
    N430     N        0.09633    0.13114    0.85485    1.000
    Si431    Si       0.08419    0.20940    0.78404    1.000
    N432     N        0.07609    0.18449    0.81875    1.000
    N433     N        0.04995    0.22064    0.76158    1.000
    Si434    Si       0.04669    0.19790    0.84951    1.000
    Si435    Si       0.08439    0.03130    0.97022    1.000
    N436     N        0.07463    0.05309    0.93156    1.000
    N437     N        0.05017    0.10660    0.98028    1.000
    N438     N        0.04508    0.17699    0.95563    1.000
    N439     N        0.05023    0.24252    0.93969    1.000
    Si440    Si       0.07794    0.18550    0.92573    1.000
    N441     N        0.07025    0.19896    0.88600    1.000
    Si442    Si       0.09209    0.25067    0.95926    1.000
    N443     N        0.10365    0.14951    0.92038    1.000
    N444     N        0.07754    0.31181    0.08450    1.000
    Si445    Si       0.06092    0.27310    0.07901    1.000
    N446     N        0.06146    0.37981    0.09358    1.000
    Si447    Si       0.05079    0.38555    0.05157    1.000
    N448     N        0.08224    0.38277    0.02159    1.000
    Si449    Si       0.09157    0.49751    0.05542    1.000
    N450     N        0.08970    0.43755    0.11274    1.000
    N451     N        0.05655    0.49679    0.08428    1.000
    N452     N        0.10379    0.46773    0.02531    1.000
    Si453    Si       0.06094    0.46821    0.11810    1.000
    Si454    Si       0.08590    0.39576    0.12508    1.000
    N455     N        0.07183    0.27840    0.18494    1.000
    N456     N        0.04730    0.33403    0.14061    1.000
    N457     N        0.07563    0.48804    0.15399    1.000
    N458     N        0.06780    0.39351    0.16556    1.000
    N459     N        0.06801    0.39725    0.23593    1.000
    Si460    Si       0.09118    0.40396    0.19961    1.000
    N461     N        0.07422    0.34868    0.29289    1.000
    N462     N        0.08755    0.28775    0.29238    1.000
    Si463    Si       0.06767    0.31370    0.32049    1.000
    N464     N        0.08961    0.30355    0.35837    1.000
    N465     N        0.06621    0.36465    0.37183    1.000
    Si466    Si       0.08632    0.38603    0.27384    1.000
    N467     N        0.08426    0.42015    0.29992    1.000
    Si468    Si       0.08291    0.49647    0.31126    1.000
    N469     N        0.10503    0.43731    0.35847    1.000
    N470     N        0.08818    0.28857    0.47773    1.000
    N471     N        0.09720    0.33818    0.42956    1.000
    Si472    Si       0.09827    0.33643    0.38480    1.000
    Si473    Si       0.07928    0.37496    0.44195    1.000
    Si474    Si       0.07196    0.40847    0.37468    1.000
    Si475    Si       0.08927    0.49774    0.43010    1.000
    N476     N        0.09315    0.49100    0.47335    1.000
    Si477    Si       0.05749    0.47468    0.48910    1.000
    N478     N        0.06925    0.41102    0.41785    1.000
    N479     N        0.04931    0.48242    0.42202    1.000
    Si480    Si       0.06810    0.32259    0.58842    1.000
    N481     N        0.07238    0.36628    0.58771    1.000
    Si482    Si       0.10499    0.26008    0.50431    1.000
    Si483    Si       0.09445    0.39309    0.61174    1.000
    Si484    Si       0.06393    0.43305    0.55615    1.000
    N485     N        0.08819    0.43152    0.59380    1.000
    N486     N        0.06916    0.46977    0.53263    1.000
    N487     N        0.05571    0.39848    0.52929    1.000
    Si488    Si       0.08917    0.46516    0.62044    1.000
    N489     N        0.04889    0.48216    0.62300    1.000
    N490     N        0.05924    0.27461    0.68124    1.000
    N491     N        0.07058    0.31357    0.63156    1.000
    Si492    Si       0.07746    0.31673    0.67538    1.000
    Si493    Si       0.10031    0.26227    0.69321    1.000
    N494     N        0.05287    0.34662    0.69377    1.000
    Si495    Si       0.04766    0.43156    0.72705    1.000
    N496     N        0.09627    0.45864    0.66381    1.000
    N497     N        0.08623    0.41218    0.71751    1.000
    Si498    Si       0.08754    0.49095    0.69111    1.000
    N499     N        0.06656    0.47247    0.72524    1.000
    Si500    Si       0.10423    0.41942    0.67774    1.000
    N501     N        0.08081    0.39360    0.65198    1.000
    Si502    Si       0.07919    0.34269    0.78980    1.000
    Si503    Si       0.08943    0.30850    0.84304    1.000
    N504     N        0.07653    0.34985    0.83519    1.000
    N505     N        0.09133    0.30329    0.79824    1.000
    N506     N        0.05940    0.28657    0.86939    1.000
    N507     N        0.06895    0.46550    0.84580    1.000
    Si508    Si       0.05887    0.44295    0.80525    1.000
    N509     N        0.09763    0.42968    0.78899    1.000
    Si510    Si       0.07286    0.50073    0.75923    1.000
    N511     N        0.05017    0.48302    0.79015    1.000
    Si512    Si       0.08466    0.50137    0.82384    1.000
    Si513    Si       0.06688    0.32140    0.95442    1.000
    N514     N        0.08410    0.36111    0.95566    1.000
    N515     N        0.08869    0.28937    0.93273    1.000
    N516     N        0.05924    0.31340    0.99477    1.000
    N517     N        0.08532    0.50413    0.96638    1.000
    N518     N        0.09663    0.45505    0.91278    1.000
    Si519    Si       0.09623    0.49788    0.92326    1.000
    Si520    Si       0.08561    0.43880    0.87489    1.000
    Si521    Si       0.07676    0.46771    0.99065    1.000
    N522     N        0.08107    0.42983    0.97254    1.000
    N523     N        0.06203    0.40295    0.88380    1.000
    Si524    Si       0.06589    0.39020    0.98293    1.000
    N525     N        0.08706    0.53256    0.02899    1.000
    Si526    Si       0.09436    0.60663    0.01066    1.000
    N527     N        0.05439    0.59976    0.02112    1.000
    Si528    Si       0.05313    0.55794    0.03161    1.000
    N529     N        0.10638    0.63442    0.11564    1.000
    Si530    Si       0.07167    0.73624    0.07555    1.000
    Si531    Si       0.06444    0.65087    0.11197    1.000
    N532     N        0.06098    0.69073    0.12316    1.000
    N533     N        0.05452    0.62230    0.14774    1.000
    Si534    Si       0.09589    0.62675    0.15792    1.000
    N535     N        0.06356    0.53841    0.20634    1.000
    Si536    Si       0.04805    0.51829    0.16945    1.000
    Si537    Si       0.04863    0.53464    0.24857    1.000
    Si538    Si       0.04609    0.72521    0.14146    1.000
    N539     N        0.07713    0.73417    0.17122    1.000
    N540     N        0.07727    0.64212    0.24074    1.000
    N541     N        0.08006    0.52197    0.27604    1.000
    N542     N        0.09740    0.58394    0.34922    1.000
    Si543    Si       0.05913    0.60556    0.35164    1.000
    N544     N        0.09170    0.51524    0.34839    1.000
    N545     N        0.05051    0.70647    0.25732    1.000
    N546     N        0.08724    0.66226    0.30725    1.000
    Si547    Si       0.06540    0.68136    0.33974    1.000
    Si548    Si       0.05863    0.66580    0.27347    1.000
    Si549    Si       0.08818    0.73033    0.25358    1.000
    N550     N        0.10072    0.70119    0.35989    1.000
    N551     N        0.05629    0.64603    0.36751    1.000
    Si552    Si       0.08193    0.54974    0.37105    1.000
    N553     N        0.09665    0.53769    0.41203    1.000
    N554     N        0.06230    0.60764    0.44619    1.000
    Si555    Si       0.08542    0.59526    0.47888    1.000
    N556     N        0.10700    0.69378    0.48014    1.000
    N557     N        0.09679    0.71752    0.42513    1.000
    Si558    Si       0.07528    0.72276    0.46270    1.000
    N559     N        0.09199    0.75482    0.48601    1.000
    Si560    Si       0.07857    0.72800    0.38902    1.000
    Si561    Si       0.06566    0.56920    0.54653    1.000
    N562     N        0.08585    0.52645    0.55134    1.000
    Si563    Si       0.05756    0.59858    0.60382    1.000
    N564     N        0.06704    0.55508    0.60681    1.000
    N565     N        0.08870    0.63077    0.50466    1.000
    N566     N        0.10434    0.59280    0.55487    1.000
    N567     N        0.05911    0.57108    0.50217    1.000
    Si568    Si       0.10257    0.53643    0.59014    1.000
    N569     N        0.09575    0.72758    0.59420    1.000
    Si570    Si       0.06361    0.70800    0.57198    1.000
    N571     N        0.07162    0.67328    0.54744    1.000
    Si572    Si       0.05274    0.63899    0.53068    1.000
    N573     N        0.09479    0.61290    0.62140    1.000
    Si574    Si       0.09102    0.62331    0.66446    1.000
    Si575    Si       0.08616    0.54825    0.70202    1.000
    N576     N        0.06372    0.52313    0.67208    1.000
    N577     N        0.06468    0.53818    0.73909    1.000
    N578     N        0.09855    0.58575    0.68732    1.000
    N579     N        0.04774    0.60423    0.74486    1.000
    N580     N        0.09371    0.70715    0.72702    1.000
    Si581    Si       0.06960    0.72250    0.62927    1.000
    N582     N        0.05126    0.63951    0.67599    1.000
    Si583    Si       0.09327    0.74966    0.73164    1.000
    N584     N        0.09603    0.69978    0.65475    1.000
    Si585    Si       0.08044    0.61362    0.77206    1.000
    N586     N        0.06794    0.59524    0.80867    1.000
    Si587    Si       0.06772    0.62222    0.84317    1.000
    N588     N        0.05364    0.52985    0.83706    1.000
    N589     N        0.08803    0.65750    0.77597    1.000
    Si590    Si       0.09005    0.67427    0.81597    1.000
    Si591    Si       0.06648    0.68699    0.75240    1.000
    N592     N        0.10013    0.71545    0.82505    1.000
    Si593    Si       0.10500    0.71464    0.86938    1.000
    N594     N        0.04904    0.66244    0.83183    1.000
    N595     N        0.05660    0.58586    0.87060    1.000
    Si596    Si       0.08238    0.54795    0.87430    1.000
    N597     N        0.10375    0.56769    0.91134    1.000
    Si598    Si       0.07650    0.58733    0.93810    1.000
    N599     N        0.09584    0.57814    0.97678    1.000
    N600     N        0.06328    0.51606    0.90001    1.000
    N601     N        0.07017    0.62954    0.93165    1.000
    Si602    Si       0.10484    0.53675    0.98967    1.000
    N603     N        0.04909    0.68278    0.96798    1.000
    Si604    Si       0.09071    0.68074    0.98130    1.000
    N605     N        0.07722    0.68488    0.88736    1.000
    Si606    Si       0.10140    0.65833    0.91329    1.000
    N607     N        0.10421    0.75655    0.88259    1.000
    N608     N        0.06029    0.83742    0.04591    1.000
    Si609    Si       0.09233    0.80558    0.03905    1.000
    Si610    Si       0.07569    0.87823    0.03894    1.000
    N611     N        0.08476    0.76261    0.04425    1.000
    N612     N        0.06155    0.76011    0.11406    1.000
    N613     N        0.10777    0.88152    0.01048    1.000
    N614     N        0.10158    0.88439    0.07330    1.000
    N615     N        0.08263    0.94990    0.08985    1.000
    Si616    Si       0.08039    0.97552    0.05522    1.000
    N617     N        0.05139    0.00402    0.03747    1.000
    N618     N        0.05340    0.00591    0.10212    1.000
    Si619    Si       0.05839    0.87728    0.21954    1.000
    N620     N        0.09385    0.79439    0.17508    1.000
    N621     N        0.07824    0.76844    0.23408    1.000
    N622     N        0.07426    0.83512    0.22159    1.000
    Si623    Si       0.05938    0.77065    0.19463    1.000
    Si624    Si       0.09449    0.76523    0.14291    1.000
    Si625    Si       0.07689    0.97881    0.20093    1.000
    N626     N        0.08784    0.96908    0.16078    1.000
    Si627    Si       0.06402    0.96862    0.12426    1.000
    N628     N        0.09944    0.97212    0.23976    1.000
    N629     N        0.08951    0.90348    0.23249    1.000
    Si630    Si       0.06254    0.83580    0.32533    1.000
    N631     N        0.07313    0.80304    0.29663    1.000
    N632     N        0.07293    0.87205    0.30494    1.000
    Si633    Si       0.06454    0.80488    0.25257    1.000
    N634     N        0.07840    0.83984    0.36520    1.000
    N635     N        0.07257    0.76776    0.37387    1.000
    N636     N        0.08264    0.98086    0.34041    1.000
    Si637    Si       0.08698    0.93700    0.26267    1.000
    N638     N        0.09620    0.91042    0.35841    1.000
    N639     N        0.05248    0.93511    0.28863    1.000
    Si640    Si       0.10778    0.89346    0.32068    1.000
    Si641    Si       0.09365    0.95164    0.37003    1.000
    Si642    Si       0.10002    0.80252    0.37363    1.000
    N643     N        0.09976    0.82894    0.47168    1.000
    N644     N        0.08730    0.86961    0.42339    1.000
    Si645    Si       0.06211    0.85232    0.46105    1.000
    Si646    Si       0.07624    0.88054    0.38309    1.000
    N647     N        0.05971    0.88161    0.49228    1.000
    Si648    Si       0.07666    0.95858    0.49235    1.000
    N649     N        0.07221    0.96249    0.40690    1.000
    Si650    Si       0.10848    0.97877    0.42515    1.000
    N651     N        0.07287    0.80304    0.52919    1.000
    Si652    Si       0.08592    0.83366    0.55543    1.000
    N653     N        0.05655    0.83981    0.58681    1.000
    N654     N        0.10313    0.87531    0.54960    1.000
    Si655    Si       0.10287    0.79551    0.49742    1.000
    N656     N        0.07136    0.91572    0.59534    1.000
    Si657    Si       0.07059    0.89942    0.52926    1.000
    N658     N        0.09501    0.93609    0.52672    1.000
    N659     N        0.06664    0.99644    0.51466    1.000
    Si660    Si       0.07078    0.00219    0.55814    1.000
    Si661    Si       0.05821    0.83097    0.62899    1.000
    Si662    Si       0.08279    0.78609    0.66897    1.000
    N663     N        0.05867    0.81729    0.68681    1.000
    Si664    Si       0.06622    0.85949    0.68761    1.000
    N665     N        0.09588    0.80792    0.63375    1.000
    N666     N        0.04922    0.87060    0.64910    1.000
    N667     N        0.05544    0.77317    0.74218    1.000
    N668     N        0.05791    0.75539    0.65469    1.000
    N669     N        0.06071    0.94564    0.73044    1.000
    N670     N        0.07093    0.92984    0.66532    1.000
    N671     N        0.05770    0.00582    0.69404    1.000
    Si672    Si       0.07902    0.98462    0.72350    1.000
    N673     N        0.10115    0.99182    0.64543    1.000
    Si674    Si       0.06275    0.01070    0.64848    1.000
    N675     N        0.07577    0.78868    0.81183    1.000
    N676     N        0.08637    0.86549    0.82880    1.000
    Si677    Si       0.08048    0.79997    0.76957    1.000
    Si678    Si       0.06032    0.85557    0.86152    1.000
    Si679    Si       0.05216    0.85951    0.80247    1.000
    Si680    Si       0.10592    0.75696    0.80876    1.000
    N681     N        0.09870    0.89776    0.77182    1.000
    Si682    Si       0.06343    0.92382    0.76644    1.000
    Si683    Si       0.08425    0.96930    0.82033    1.000
    N684     N        0.09211    0.93124    0.83917    1.000
    N685     N        0.05393    0.95713    0.79368    1.000
    N686     N        0.06414    0.00575    0.83318    1.000
    Si687    Si       0.06521    0.83206    0.93267    1.000
    N688     N        0.07945    0.82922    0.88958    1.000
    Si689    Si       0.07179    0.78418    0.89137    1.000
    N690     N        0.05831    0.78943    0.93372    1.000
    N691     N        0.10468    0.85254    0.94143    1.000
    N692     N        0.05324    0.89137    0.88417    1.000
    N693     N        0.07066    0.98738    0.97074    1.000
    N694     N        0.08717    0.94792    0.90836    1.000
    Si695    Si       0.07217    0.94952    0.94945    1.000
    Si696    Si       0.06628    0.93239    0.87465    1.000
    N697     N        0.10474    0.92601    0.96213    1.000
    Si698    Si       0.12964    0.01610    0.10130    1.000
    N699     N        0.16173    0.12735    0.04282    1.000
    N700     N        0.11325    0.12431    0.09490    1.000
    N701     N        0.16268    0.04414    0.09678    1.000
    Si702    Si       0.16439    0.09915    0.01118    1.000
    N703     N        0.11253    0.00898    0.06144    1.000
    Si704    Si       0.16118    0.20809    0.06158    1.000
    N705     N        0.15319    0.22644    0.02210    1.000
    Si706    Si       0.12297    0.14243    0.05607    1.000
    N707     N        0.12571    0.18433    0.06612    1.000
    Si708    Si       0.11946    0.25706    0.01988    1.000
    N709     N        0.11276    0.07885    0.19778    1.000
    N710     N        0.14637    0.09400    0.14622    1.000
    Si711    Si       0.15724    0.08800    0.19440    1.000
    Si712    Si       0.14181    0.13277    0.12548    1.000
    N713     N        0.12525    0.16021    0.15617    1.000
    Si714    Si       0.12199    0.21900    0.22178    1.000
    N715     N        0.15053    0.18705    0.22593    1.000
    Si716    Si       0.15924    0.16941    0.18377    1.000
    N717     N        0.13835    0.25648    0.20511    1.000
    N718     N        0.12739    0.10447    0.28046    1.000
    N719     N        0.13684    0.02743    0.35664    1.000
    Si720    Si       0.14958    0.07074    0.26370    1.000
    N721     N        0.13240    0.11435    0.34117    1.000
    Si722    Si       0.15442    0.12902    0.30591    1.000
    Si723    Si       0.15971    0.02073    0.32131    1.000
    N724     N        0.12389    0.03942    0.24943    1.000
    Si725    Si       0.13435    0.19591    0.33365    1.000
    N726     N        0.15025    0.17255    0.29999    1.000
    Si727    Si       0.11343    0.25398    0.28837    1.000
    N728     N        0.11184    0.23482    0.32839    1.000
    N729     N        0.16252    0.20556    0.36498    1.000
    N730     N        0.12046    0.02032    0.42005    1.000
    Si731    Si       0.15076    0.03907    0.39733    1.000
    Si732    Si       0.13358    0.11665    0.38320    1.000
    N733     N        0.14169    0.11101    0.47121    1.000
    N734     N        0.15052    0.08259    0.40439    1.000
    N735     N        0.11527    0.22621    0.47631    1.000
    N736     N        0.16066    0.14417    0.40399    1.000
    Si737    Si       0.12525    0.24198    0.43500    1.000
    N738     N        0.15227    0.20857    0.43089    1.000
    Si739    Si       0.15453    0.20576    0.47351    1.000
    Si740    Si       0.12507    0.03646    0.53634    1.000
    N741     N        0.13448    0.12862    0.60869    1.000
    N742     N        0.12228    0.05149    0.61743    1.000
    Si743    Si       0.16235    0.13307    0.57238    1.000
    N744     N        0.13827    0.13405    0.53621    1.000
    Si745    Si       0.16519    0.13262    0.50158    1.000
    N746     N        0.15443    0.19919    0.61787    1.000
    N747     N        0.15624    0.26042    0.58815    1.000
    Si748    Si       0.13720    0.01566    0.63704    1.000
    Si749    Si       0.13548    0.09051    0.63085    1.000
    Si750    Si       0.13119    0.11694    0.69797    1.000
    N751     N        0.15307    0.02430    0.67748    1.000
    N752     N        0.16066    0.08734    0.71236    1.000
    N753     N        0.11017    0.09945    0.66610    1.000
    N754     N        0.16481    0.20727    0.70795    1.000
    Si755    Si       0.13885    0.16297    0.63788    1.000
    N756     N        0.15288    0.15024    0.67562    1.000
    N757     N        0.16321    0.14304    0.74033    1.000
    Si758    Si       0.13763    0.21923    0.74007    1.000
    Si759    Si       0.13276    0.23535    0.62849    1.000
    N760     N        0.11134    0.25282    0.73361    1.000
    N761     N        0.10911    0.22865    0.66616    1.000
    Si762    Si       0.14265    0.08448    0.80637    1.000
    N763     N        0.11540    0.04745    0.80589    1.000
    Si764    Si       0.12168    0.01314    0.77859    1.000
    N765     N        0.15765    0.01324    0.75330    1.000
    Si766    Si       0.15702    0.03306    0.85422    1.000
    N767     N        0.12678    0.12557    0.79713    1.000
    N768     N        0.15936    0.07536    0.84698    1.000
    Si769    Si       0.12370    0.14459    0.75793    1.000
    Si770    Si       0.14928    0.23009    0.81144    1.000
    N771     N        0.14472    0.18907    0.82782    1.000
    N772     N        0.11238    0.18735    0.75810    1.000
    Si773    Si       0.11297    0.15744    0.82452    1.000
    N774     N        0.10855    0.24160    0.79934    1.000
    N775     N        0.12368    0.03247    0.88459    1.000
    N776     N        0.13368    0.09433    0.91771    1.000
    Si777    Si       0.11605    0.05425    0.92014    1.000
    N778     N        0.12652    0.03807    0.96032    1.000
    N779     N        0.12926    0.10668    0.98573    1.000
    Si780    Si       0.13192    0.12804    0.94933    1.000
    Si781    Si       0.12229    0.12553    0.88931    1.000
    Si782    Si       0.16230    0.03351    0.98131    1.000
    N783     N        0.15865    0.13939    0.87159    1.000
    N784     N        0.16014    0.16068    0.95206    1.000
    Si785    Si       0.14834    0.20049    0.93228    1.000
    N786     N        0.10734    0.21349    0.94169    1.000
    Si787    Si       0.11810    0.31778    0.07388    1.000
    N788     N        0.13211    0.35720    0.06041    1.000
    N789     N        0.13569    0.29092    0.04165    1.000
    N790     N        0.15198    0.30387    0.10040    1.000
    Si791    Si       0.12501    0.37932    0.02469    1.000
    Si792    Si       0.15182    0.38224    0.09082    1.000
    Si793    Si       0.14369    0.45380    0.01565    1.000
    N794     N        0.12631    0.48936    0.08418    1.000
    Si795    Si       0.12922    0.45333    0.10659    1.000
    N796     N        0.15148    0.41345    0.02425    1.000
    N797     N        0.15778    0.42554    0.09175    1.000
    N798     N        0.13011    0.31871    0.17033    1.000
    Si799    Si       0.14136    0.36063    0.16277    1.000
    Si800    Si       0.13853    0.34976    0.23026    1.000
    N801     N        0.10779    0.32122    0.23559    1.000
    Si802    Si       0.11044    0.29239    0.19988    1.000
    N803     N        0.12538    0.37756    0.12648    1.000
    N804     N        0.12958    0.38223    0.20041    1.000
    Si805    Si       0.16286    0.30814    0.14147    1.000
    Si806    Si       0.11268    0.47806    0.17334    1.000
    N807     N        0.11033    0.44403    0.19979    1.000
    N808     N        0.14483    0.46570    0.14518    1.000
    Si809    Si       0.14874    0.42333    0.21619    1.000
    N810     N        0.14490    0.32231    0.30783    1.000
    N811     N        0.15463    0.27580    0.36402    1.000
    N812     N        0.12764    0.37077    0.26921    1.000
    Si813    Si       0.11250    0.26493    0.36223    1.000
    Si814    Si       0.10964    0.32660    0.27909    1.000
    N815     N        0.15297    0.26548    0.27421    1.000
    Si816    Si       0.16205    0.31648    0.34965    1.000
    N817     N        0.12236    0.47760    0.30295    1.000
    Si818    Si       0.15588    0.47470    0.27331    1.000
    N819     N        0.15551    0.41311    0.31901    1.000
    N820     N        0.14561    0.43516    0.25847    1.000
    Si821    Si       0.11962    0.43697    0.31869    1.000
    N822     N        0.15978    0.47580    0.35753    1.000
    Si823    Si       0.16390    0.39456    0.28036    1.000
    Si824    Si       0.13576    0.50903    0.34150    1.000
    N825     N        0.15160    0.51003    0.24948    1.000
    N826     N        0.13991    0.34124    0.37814    1.000
    N827     N        0.13460    0.33712    0.48899    1.000
    Si828    Si       0.14751    0.37598    0.47461    1.000
    Si829    Si       0.11718    0.31132    0.45716    1.000
    N830     N        0.14514    0.28095    0.44070    1.000
    Si831    Si       0.16066    0.37333    0.40069    1.000
    N832     N        0.15757    0.45851    0.47725    1.000
    Si833    Si       0.14542    0.44670    0.38781    1.000
    N834     N        0.11703    0.46732    0.41661    1.000
    Si835    Si       0.10907    0.42779    0.43287    1.000
    Si836    Si       0.13693    0.49611    0.47254    1.000
    N837     N        0.13413    0.40671    0.40383    1.000
    N838     N        0.11025    0.39493    0.46248    1.000
    N839     N        0.13808    0.27650    0.52641    1.000
    Si840    Si       0.13887    0.34351    0.59143    1.000
    Si841    Si       0.13302    0.32017    0.53212    1.000
    Si842    Si       0.11556    0.26863    0.56799    1.000
    N843     N        0.11116    0.31336    0.57132    1.000
    N844     N        0.15945    0.34677    0.55341    1.000
    Si845    Si       0.10814    0.49531    0.53044    1.000
    N846     N        0.13713    0.38525    0.61051    1.000
    N847     N        0.13508    0.46110    0.54682    1.000
    Si848    Si       0.14972    0.47696    0.58435    1.000
    N849     N        0.11425    0.49624    0.60410    1.000
    Si850    Si       0.16048    0.44175    0.51804    1.000
    N851     N        0.16454    0.39906    0.50799    1.000
    N852     N        0.11693    0.30338    0.68708    1.000
    Si853    Si       0.15608    0.30874    0.70931    1.000
    Si854    Si       0.16412    0.41383    0.63364    1.000
    N855     N        0.14788    0.42209    0.74270    1.000
    N856     N        0.14645    0.41172    0.67327    1.000
    Si857    Si       0.14962    0.34250    0.77561    1.000
    N858     N        0.12828    0.30785    0.86350    1.000
    N859     N        0.11305    0.36614    0.76983    1.000
    N860     N        0.14138    0.30725    0.75233    1.000
    Si861    Si       0.11324    0.27707    0.77107    1.000
    Si862    Si       0.16669    0.30083    0.84568    1.000
    N863     N        0.16640    0.32907    0.81240    1.000
    N864     N        0.12223    0.42661    0.85733    1.000
    Si865    Si       0.13275    0.43283    0.81528    1.000
    Si866    Si       0.15116    0.50158    0.78714    1.000
    Si867    Si       0.10910    0.40646    0.75392    1.000
    N868     N        0.16048    0.39916    0.80599    1.000
    N869     N        0.15969    0.46424    0.80551    1.000
    N870     N        0.10705    0.50441    0.78576    1.000
    N871     N        0.14579    0.36306    0.98803    1.000
    Si872    Si       0.12758    0.36388    0.94909    1.000
    Si873    Si       0.12265    0.29871    0.90690    1.000
    N874     N        0.15213    0.26873    0.91221    1.000
    N875     N        0.12736    0.27138    0.97759    1.000
    N876     N        0.14323    0.33389    0.92364    1.000
    Si877    Si       0.16230    0.26723    0.95426    1.000
    N878     N        0.13422    0.40000    0.92591    1.000
    Si879    Si       0.14840    0.41099    0.88533    1.000
    Si880    Si       0.11543    0.43398    0.94393    1.000
    N881     N        0.14374    0.45293    0.97029    1.000
    N882     N        0.13913    0.50667    0.91764    1.000
    Si883    Si       0.13251    0.62416    0.08209    1.000
    N884     N        0.11566    0.59969    0.04764    1.000
    Si885    Si       0.15352    0.57803    0.04631    1.000
    Si886    Si       0.16265    0.51164    0.08449    1.000
    N887     N        0.16173    0.53719    0.04834    1.000
    Si888    Si       0.14827    0.64454    0.01791    1.000
    Si889    Si       0.14907    0.69897    0.07396    1.000
    N890     N        0.14690    0.65774    0.05936    1.000
    Si891    Si       0.11856    0.73604    0.03372    1.000
    N892     N        0.16171    0.73506    0.04922    1.000
    N893     N        0.10566    0.64677    0.00221    1.000
    N894     N        0.10702    0.71101    0.06878    1.000
    N895     N        0.11485    0.71661    0.99507    1.000
    N896     N        0.10757    0.59013    0.17795    1.000
    N897     N        0.12576    0.51918    0.18113    1.000
    N898     N        0.11802    0.56570    0.24073    1.000
    Si899    Si       0.16595    0.52616    0.16122    1.000
    N900     N        0.16797    0.53690    0.11856    1.000
    Si901    Si       0.10530    0.55488    0.19990    1.000
    Si902    Si       0.11254    0.65821    0.22267    1.000
    N903     N        0.14675    0.63566    0.23636    1.000
    Si904    Si       0.10961    0.70767    0.18475    1.000
    N905     N        0.14761    0.72422    0.17880    1.000
    Si906    Si       0.16244    0.73853    0.14046    1.000
    N907     N        0.10874    0.70151    0.22822    1.000
    N908     N        0.10831    0.66306    0.17944    1.000
    N909     N        0.13259    0.61080    0.29588    1.000
    Si910    Si       0.13456    0.58043    0.32624    1.000
    N911     N        0.13878    0.54050    0.30954    1.000
    Si912    Si       0.12109    0.53457    0.27027    1.000
    Si913    Si       0.14286    0.59719    0.25639    1.000
    N914     N        0.15096    0.68223    0.28973    1.000
    N915     N        0.13786    0.64991    0.35787    1.000
    Si916    Si       0.12976    0.65268    0.31475    1.000
    Si917    Si       0.15116    0.72582    0.28764    1.000
    N918     N        0.15774    0.74790    0.24969    1.000
    N919     N        0.10921    0.74003    0.29189    1.000
    N920     N        0.15222    0.53684    0.37315    1.000
    Si921    Si       0.13901    0.54890    0.41250    1.000
    N922     N        0.14303    0.59430    0.41159    1.000
    N923     N        0.12898    0.58947    0.47876    1.000
    N924     N        0.15567    0.52526    0.44462    1.000
    Si925    Si       0.14589    0.61922    0.44809    1.000
    Si926    Si       0.16008    0.61845    0.37880    1.000
    Si927    Si       0.15956    0.55634    0.49872    1.000
    N928     N        0.12508    0.65615    0.42608    1.000
    Si929    Si       0.12595    0.67945    0.38767    1.000
    N930     N        0.16101    0.72636    0.47070    1.000
    Si931    Si       0.13357    0.69764    0.44446    1.000
    N932     N        0.15692    0.70355    0.40619    1.000
    N933     N        0.13953    0.55844    0.60017    1.000
    Si934    Si       0.12755    0.60995    0.52123    1.000
    Si935    Si       0.12550    0.59870    0.59186    1.000
    N936     N        0.14033    0.51924    0.50988    1.000
    N937     N        0.16236    0.58316    0.53268    1.000
    N938     N        0.16076    0.62324    0.58970    1.000
    Si939    Si       0.13402    0.71985    0.57601    1.000
    N940     N        0.14969    0.69448    0.60726    1.000
    N941     N        0.14831    0.64679    0.51073    1.000
    N942     N        0.12772    0.70662    0.53777    1.000
    Si943    Si       0.12539    0.73144    0.50240    1.000
    Si944    Si       0.10922    0.67154    0.51782    1.000
    Si945    Si       0.12826    0.60630    0.71331    1.000
    N946     N        0.11934    0.51783    0.70185    1.000
    Si947    Si       0.16129    0.50922    0.70760    1.000
    Si948    Si       0.13647    0.71350    0.64371    1.000
    N949     N        0.15106    0.69720    0.68289    1.000
    Si950    Si       0.10962    0.68529    0.69289    1.000
    N951     N        0.12125    0.64303    0.69148    1.000
    N952     N        0.11383    0.52685    0.85125    1.000
    Si953    Si       0.15690    0.53265    0.85411    1.000
    N954     N        0.11721    0.59935    0.75344    1.000
    N955     N        0.16126    0.57329    0.86739    1.000
    Si956    Si       0.14268    0.65229    0.86358    1.000
    N957     N        0.10756    0.64347    0.83972    1.000
    Si958    Si       0.14192    0.58686    0.90267    1.000
    N959     N        0.14664    0.52778    0.98318    1.000
    N960     N        0.13321    0.63038    0.90067    1.000
    Si961    Si       0.16526    0.52875    0.94389    1.000
    N962     N        0.14211    0.69427    0.87506    1.000
    N963     N        0.11680    0.68048    0.94652    1.000
    Si964    Si       0.14903    0.70007    0.96881    1.000
    Si965    Si       0.13533    0.85868    0.07745    1.000
    Si966    Si       0.14392    0.80416    0.10209    1.000
    N967     N        0.12297    0.81822    0.06537    1.000
    N968     N        0.13728    0.84471    0.11912    1.000
    N969     N        0.10292    0.81310    0.99775    1.000
    Si970    Si       0.14109    0.98350    0.03609    1.000
    N971     N        0.15201    0.93382    0.06943    1.000
    Si972    Si       0.11576    0.92212    0.09022    1.000
    Si973    Si       0.11818    0.92105    0.00269    1.000
    N974     N        0.16463    0.92074    0.99943    1.000
    N975     N        0.10706    0.95584    0.02596    1.000
    N976     N        0.14329    0.97874    0.12064    1.000
    N977     N        0.13212    0.76733    0.12308    1.000
    Si978    Si       0.11228    0.82395    0.19975    1.000
    N979     N        0.12343    0.86613    0.18809    1.000
    Si980    Si       0.14128    0.87466    0.14791    1.000
    N981     N        0.15438    0.81648    0.21668    1.000
    N982     N        0.14283    0.93569    0.19008    1.000
    Si983    Si       0.12752    0.95363    0.15360    1.000
    N984     N        0.12681    0.91316    0.13112    1.000
    Si985    Si       0.12682    0.90293    0.21352    1.000
    N986     N        0.15871    0.88680    0.23582    1.000
    N987     N        0.14411    0.86960    0.32477    1.000
    N988     N        0.13013    0.79700    0.34138    1.000
    N989     N        0.14185    0.80696    0.28087    1.000
    Si990    Si       0.15493    0.82932    0.31621    1.000
    Si991    Si       0.11270    0.78213    0.30416    1.000
    Si992    Si       0.15516    0.94496    0.29339    1.000
    N993     N        0.14776    0.98745    0.29074    1.000
    N994     N        0.11812    0.92404    0.29107    1.000
    Si995    Si       0.13413    0.99874    0.24998    1.000
    Si996    Si       0.11772    0.84211    0.43508    1.000
    N997     N        0.12510    0.80833    0.40822    1.000
    N998     N        0.15511    0.85918    0.44747    1.000
    N999     N        0.11104    0.96900    0.46694    1.000
    N1000    N        0.13124    0.96218    0.39049    1.000
    Si1001   Si       0.15281    0.96673    0.47598    1.000
    N1002    N        0.12318    0.81625    0.57137    1.000
    Si1003   Si       0.15540    0.79363    0.54982    1.000
    N1004    N        0.15753    0.83472    0.51897    1.000
    N1005    N        0.14471    0.77078    0.51454    1.000
    Si1006   Si       0.14464    0.87481    0.53265    1.000
    Si1007   Si       0.12872    0.82721    0.61424    1.000
    N1008    N        0.11786    0.87017    0.62057    1.000
    N1009    N        0.15345    0.75858    0.57916    1.000
    N1010    N        0.13655    0.93372    0.58309    1.000
    Si1011   Si       0.12695    0.95829    0.54720    1.000
    N1012    N        0.11451    0.99865    0.55749    1.000
    Si1013   Si       0.15856    0.94420    0.61881    1.000
    Si1014   Si       0.11116    0.89838    0.58797    1.000
    N1015    N        0.16320    0.96689    0.52282    1.000
    N1016    N        0.16572    0.98732    0.61779    1.000
    Si1017   Si       0.15290    0.78007    0.68482    1.000
    Si1018   Si       0.11344    0.86986    0.73969    1.000
    N1019    N        0.10974    0.77261    0.69778    1.000
    N1020    N        0.16085    0.81768    0.70552    1.000
    N1021    N        0.10774    0.87065    0.69511    1.000
    N1022    N        0.15618    0.88004    0.74269    1.000
    N1023    N        0.15289    0.75435    0.64949    1.000
    Si1024   Si       0.15359    0.99684    0.71344    1.000
    Si1025   Si       0.13082    0.88571    0.65869    1.000
    N1026    N        0.11746    0.97422    0.70623    1.000
    N1027    N        0.13609    0.92870    0.65360    1.000
    Si1028   Si       0.10608    0.95519    0.66819    1.000
    N1029    N        0.14174    0.77588    0.82579    1.000
    N1030    N        0.11336    0.76715    0.76659    1.000
    N1031    N        0.11105    0.82792    0.75109    1.000
    Si1032   Si       0.13896    0.77825    0.86864    1.000
    Si1033   Si       0.14151    0.79906    0.74516    1.000
    N1034    N        0.15054    0.89481    0.82039    1.000
    N1035    N        0.12153    0.97601    0.80301    1.000
    Si1036   Si       0.16293    0.90671    0.86217    1.000
    Si1037   Si       0.16120    0.96686    0.81362    1.000
    Si1038   Si       0.10824    0.89911    0.81581    1.000
    N1039    N        0.14711    0.81621    0.88945    1.000
    Si1040   Si       0.11832    0.85045    0.98227    1.000
    Si1041   Si       0.12032    0.85152    0.89909    1.000
    N1042    N        0.16237    0.85044    0.97898    1.000
    Si1043   Si       0.12410    0.92687    0.92219    1.000
    N1044    N        0.15810    0.99235    0.99399    1.000
    N1045    N        0.13367    0.89328    0.89103    1.000
    N1046    N        0.16184    0.94674    0.93045    1.000
    Si1047   Si       0.18450    0.03732    0.05771    1.000
    Si1048   Si       0.22138    0.11864    0.11512    1.000
    N1049    N        0.17138    0.05665    0.01943    1.000
    N1050    N        0.18118    0.13655    0.10897    1.000
    Si1051   Si       0.19187    0.14443    0.06808    1.000
    N1052    N        0.18090    0.24376    0.08052    1.000
    N1053    N        0.19764    0.18703    0.07124    1.000
    Si1054   Si       0.21891    0.22312    0.08497    1.000
    N1055    N        0.20491    0.18035    0.00204    1.000
    Si1056   Si       0.18727    0.21912    0.99526    1.000
    N1057    N        0.21644    0.07615    0.12440    1.000
    Si1058   Si       0.19173    0.01544    0.19764    1.000
    Si1059   Si       0.20218    0.11958    0.22492    1.000
    N1060    N        0.17230    0.04662    0.17472    1.000
    Si1061   Si       0.17414    0.06231    0.13361    1.000
    N1062    N        0.17602    0.08513    0.23296    1.000
    N1063    N        0.17763    0.12993    0.19048    1.000
    N1064    N        0.17792    0.20532    0.17111    1.000
    N1065    N        0.20679    0.25223    0.21977    1.000
    Si1066   Si       0.17644    0.24588    0.18687    1.000
    N1067    N        0.19506    0.11595    0.30224    1.000
    Si1068   Si       0.20567    0.07547    0.31012    1.000
    N1069    N        0.16874    0.05634    0.29970    1.000
    Si1070   Si       0.21487    0.03136    0.36728    1.000
    N1071    N        0.22212    0.07037    0.34936    1.000
    N1072    N        0.19731    0.21515    0.27767    1.000
    N1073    N        0.21329    0.24832    0.33630    1.000
    N1074    N        0.20408    0.15352    0.25193    1.000
    Si1075   Si       0.17204    0.18244    0.26441    1.000
    Si1076   Si       0.18340    0.24289    0.36763    1.000
    Si1077   Si       0.19395    0.25425    0.26144    1.000
    Si1078   Si       0.20751    0.02358    0.44881    1.000
    N1079    N        0.19441    0.02989    0.40638    1.000
    N1080    N        0.20946    0.11340    0.44208    1.000
    Si1081   Si       0.16790    0.11210    0.43538    1.000
    N1082    N        0.18164    0.24061    0.47924    1.000
    N1083    N        0.17578    0.17327    0.49038    1.000
    N1084    N        0.21612    0.17910    0.41035    1.000
    N1085    N        0.20243    0.24455    0.40724    1.000
    Si1086   Si       0.17385    0.18558    0.40183    1.000
    N1087    N        0.19051    0.09755    0.57905    1.000
    N1088    N        0.20837    0.04099    0.60201    1.000
    Si1089   Si       0.20291    0.05644    0.56042    1.000
    N1090    N        0.20264    0.11615    0.51324    1.000
    Si1091   Si       0.20664    0.08309    0.61773    1.000
    Si1092   Si       0.22039    0.12486    0.55403    1.000
    N1093    N        0.16936    0.03760    0.53694    1.000
    N1094    N        0.21673    0.22400    0.58847    1.000
    N1095    N        0.19687    0.15970    0.56062    1.000
    Si1096   Si       0.19625    0.18738    0.52658    1.000
    Si1097   Si       0.17381    0.21857    0.58425    1.000
    Si1098   Si       0.17715    0.25549    0.52011    1.000
    N1099    N        0.16890    0.21668    0.54092    1.000
    Si1100   Si       0.17801    0.06098    0.68252    1.000
    N1101    N        0.17460    0.08481    0.64627    1.000
    N1102    N        0.22008    0.05664    0.68733    1.000
    Si1103   Si       0.18046    0.10439    0.74652    1.000
    Si1104   Si       0.17829    0.16573    0.70685    1.000
    Si1105   Si       0.18227    0.24000    0.68295    1.000
    N1106    N        0.22169    0.16609    0.71056    1.000
    N1107    N        0.21845    0.22568    0.66814    1.000
    N1108    N        0.16474    0.25783    0.64814    1.000
    Si1109   Si       0.18782    0.03056    0.78435    1.000
    N1110    N        0.21230    0.11813    0.82941    1.000
    Si1111   Si       0.18481    0.10478    0.86245    1.000
    N1112    N        0.17092    0.01062    0.81894    1.000
    N1113    N        0.17452    0.07555    0.77878    1.000
    N1114    N        0.22095    0.11076    0.75445    1.000
    N1115    N        0.22517    0.04995    0.80728    1.000
    N1116    N        0.16639    0.23727    0.77166    1.000
    Si1117   Si       0.17257    0.17904    0.85975    1.000
    N1118    N        0.21444    0.18494    0.85876    1.000
    Si1119   Si       0.19824    0.25657    0.75044    1.000
    N1120    N        0.18721    0.01646    0.88434    1.000
    Si1121   Si       0.20772    0.04626    0.90860    1.000
    N1122    N        0.19661    0.10986    0.98479    1.000
    N1123    N        0.20682    0.08858    0.89686    1.000
    N1124    N        0.19396    0.04838    0.95196    1.000
    N1125    N        0.15836    0.20665    0.89174    1.000
    N1126    N        0.17422    0.22516    0.95532    1.000
    N1127    N        0.21895    0.25363    0.88673    1.000
    Si1128   Si       0.19837    0.15261    0.96885    1.000
    Si1129   Si       0.17362    0.24705    0.88353    1.000
    N1130    N        0.21101    0.29645    0.04565    1.000
    N1131    N        0.19586    0.37332    0.08797    1.000
    Si1132   Si       0.17157    0.28416    0.06714    1.000
    Si1133   Si       0.22183    0.28459    0.00561    1.000
    Si1134   Si       0.21512    0.35411    0.12299    1.000
    N1135    N        0.21432    0.37865    0.01512    1.000
    N1136    N        0.18588    0.47547    0.01299    1.000
    N1137    N        0.19736    0.48270    0.08405    1.000
    Si1138   Si       0.19880    0.43957    0.09108    1.000
    Si1139   Si       0.22400    0.46020    0.02838    1.000
    N1140    N        0.18689    0.27564    0.15560    1.000
    N1141    N        0.18085    0.34894    0.14835    1.000
    Si1142   Si       0.22727    0.27793    0.13960    1.000
    N1143    N        0.17335    0.33034    0.24607    1.000
    N1144    N        0.19261    0.39328    0.24333    1.000
    N1145    N        0.18494    0.43900    0.19779    1.000
    Si1146   Si       0.21774    0.42170    0.22266    1.000
    N1147    N        0.21292    0.43430    0.13298    1.000
    N1148    N        0.19855    0.49832    0.16712    1.000
    Si1149   Si       0.18575    0.45779    0.15801    1.000
    N1150    N        0.20594    0.31784    0.35023    1.000
    N1151    N        0.21023    0.28715    0.28651    1.000
    Si1152   Si       0.21257    0.36022    0.34179    1.000
    Si1153   Si       0.20701    0.35586    0.25975    1.000
    N1154    N        0.19723    0.36378    0.30147    1.000
    Si1155   Si       0.17173    0.30407    0.28064    1.000
    Si1156   Si       0.20037    0.48222    0.33948    1.000
    N1157    N        0.19513    0.48057    0.29414    1.000
    N1158    N        0.21456    0.29972    0.44907    1.000
    Si1159   Si       0.20898    0.34123    0.45991    1.000
    N1160    N        0.17561    0.36264    0.44269    1.000
    Si1161   Si       0.18635    0.26620    0.44194    1.000
    N1162    N        0.19371    0.38438    0.37208    1.000
    N1163    N        0.21489    0.48997    0.44850    1.000
    Si1164   Si       0.21185    0.42326    0.38616    1.000
    N1165    N        0.22109    0.42502    0.47218    1.000
    Si1166   Si       0.19544    0.45285    0.45257    1.000
    N1167    N        0.18453    0.44243    0.41219    1.000
    N1168    N        0.21143    0.27395    0.53664    1.000
    Si1169   Si       0.18810    0.36883    0.52954    1.000
    N1170    N        0.20795    0.33834    0.50473    1.000
    Si1171   Si       0.18102    0.28401    0.61751    1.000
    N1172    N        0.22395    0.28147    0.61622    1.000
    N1173    N        0.16664    0.32473    0.61929    1.000
    N1174    N        0.19853    0.45754    0.53150    1.000
    Si1175   Si       0.21340    0.49288    0.55198    1.000
    N1176    N        0.22182    0.39251    0.54030    1.000
    N1177    N        0.16849    0.45444    0.61772    1.000
    Si1178   Si       0.20298    0.36424    0.71774    1.000
    N1179    N        0.17984    0.34105    0.68815    1.000
    N1180    N        0.18196    0.27261    0.71308    1.000
    Si1181   Si       0.19058    0.34955    0.64699    1.000
    Si1182   Si       0.16853    0.43230    0.70408    1.000
    N1183    N        0.19990    0.39275    0.63802    1.000
    N1184    N        0.17621    0.47348    0.68717    1.000
    N1185    N        0.20394    0.40928    0.71347    1.000
    Si1186   Si       0.19235    0.48091    0.64664    1.000
    Si1187   Si       0.18020    0.36809    0.82886    1.000
    N1188    N        0.18227    0.36260    0.75450    1.000
    N1189    N        0.22224    0.36681    0.82321    1.000
    N1190    N        0.16900    0.37509    0.87005    1.000
    N1191    N        0.16586    0.25732    0.84306    1.000
    Si1192   Si       0.20385    0.46047    0.80237    1.000
    Si1193   Si       0.17846    0.40527    0.76654    1.000
    N1194    N        0.21121    0.43015    0.77298    1.000
    N1195    N        0.16793    0.50325    0.74837    1.000
    N1196    N        0.22021    0.49839    0.78862    1.000
    N1197    N        0.19498    0.31299    0.87707    1.000
    Si1198   Si       0.17883    0.34521    0.89980    1.000
    N1199    N        0.20886    0.36527    0.92352    1.000
    N1200    N        0.19203    0.28898    0.97537    1.000
    N1201    N        0.18688    0.50427    0.87191    1.000
    N1202    N        0.18099    0.43758    0.90088    1.000
    Si1203   Si       0.20604    0.41020    0.92228    1.000
    Si1204   Si       0.18588    0.46045    0.96969    1.000
    Si1205   Si       0.17853    0.39128    0.99554    1.000
    Si1206   Si       0.17258    0.48135    0.90579    1.000
    N1207    N        0.19682    0.41782    0.96467    1.000
    N1208    N        0.19444    0.49374    0.94344    1.000
    Si1209   Si       0.19300    0.57200    0.10541    1.000
    Si1210   Si       0.17992    0.51911    0.01215    1.000
    N1211    N        0.21164    0.54835    0.00053    1.000
    Si1212   Si       0.20724    0.59456    0.00196    1.000
    N1213    N        0.16821    0.60431    0.01316    1.000
    N1214    N        0.16593    0.59824    0.08320    1.000
    Si1215   Si       0.19341    0.75354    0.02937    1.000
    Si1216   Si       0.20853    0.68531    0.11556    1.000
    N1217    N        0.16999    0.70566    0.11141    1.000
    Si1218   Si       0.21140    0.68784    0.00115    1.000
    N1219    N        0.22517    0.64883    0.09609    1.000
    Si1220   Si       0.17844    0.53869    0.22937    1.000
    N1221    N        0.18059    0.55729    0.19045    1.000
    N1222    N        0.21449    0.62089    0.20719    1.000
    N1223    N        0.20661    0.59353    0.13914    1.000
    Si1224   Si       0.21178    0.58602    0.18230    1.000
    N1225    N        0.21500    0.51630    0.23108    1.000
    N1226    N        0.20840    0.66542    0.15485    1.000
    Si1227   Si       0.21757    0.66310    0.19714    1.000
    N1228    N        0.19123    0.68684    0.22434    1.000
    N1229    N        0.21079    0.75393    0.21054    1.000
    Si1230   Si       0.17723    0.72724    0.21408    1.000
    N1231    N        0.21493    0.52214    0.34928    1.000
    N1232    N        0.16986    0.59183    0.34723    1.000
    Si1233   Si       0.19309    0.55778    0.36615    1.000
    N1234    N        0.18131    0.57723    0.25200    1.000
    Si1235   Si       0.21348    0.60657    0.24814    1.000
    N1236    N        0.20661    0.64048    0.27175    1.000
    Si1237   Si       0.21156    0.72608    0.32899    1.000
    Si1238   Si       0.17216    0.66565    0.25737    1.000
    N1239    N        0.17128    0.74373    0.32198    1.000
    N1240    N        0.21507    0.70598    0.36871    1.000
    Si1241   Si       0.19930    0.53095    0.44697    1.000
    N1242    N        0.20151    0.55386    0.40980    1.000
    N1243    N        0.19858    0.55551    0.48337    1.000
    N1244    N        0.18879    0.62899    0.45899    1.000
    Si1245   Si       0.22046    0.63245    0.42778    1.000
    Si1246   Si       0.19005    0.72842    0.39999    1.000
    N1247    N        0.22085    0.72570    0.43045    1.000
    N1248    N        0.21751    0.68358    0.49448    1.000
    Si1249   Si       0.20906    0.71984    0.47204    1.000
    N1250    N        0.19527    0.63829    0.39277    1.000
    N1251    N        0.20640    0.57170    0.58455    1.000
    Si1252   Si       0.18001    0.54214    0.60436    1.000
    Si1253   Si       0.18777    0.60244    0.56058    1.000
    N1254    N        0.21131    0.63117    0.53691    1.000
    N1255    N        0.17979    0.50687    0.57823    1.000
    N1256    N        0.20902    0.68247    0.58473    1.000
    Si1257   Si       0.17670    0.65973    0.60752    1.000
    Si1258   Si       0.18992    0.64752    0.50100    1.000
    N1259    N        0.21350    0.75324    0.61871    1.000
    N1260    N        0.19447    0.52640    0.64258    1.000
    N1261    N        0.19575    0.53991    0.70581    1.000
    Si1262   Si       0.19940    0.58357    0.72725    1.000
    N1263    N        0.16915    0.60626    0.70418    1.000
    N1264    N        0.18946    0.67233    0.72223    1.000
    N1265    N        0.18746    0.65262    0.64817    1.000
    Si1266   Si       0.16816    0.65068    0.68863    1.000
    Si1267   Si       0.18481    0.71392    0.70553    1.000
    N1268    N        0.17444    0.75503    0.71301    1.000
    N1269    N        0.21857    0.72080    0.68123    1.000
    Si1270   Si       0.19466    0.59897    0.85483    1.000
    N1271    N        0.20255    0.61673    0.76147    1.000
    N1272    N        0.17200    0.53178    0.81321    1.000
    Si1273   Si       0.21612    0.53686    0.80880    1.000
    N1274    N        0.21581    0.58268    0.82034    1.000
    N1275    N        0.21831    0.55535    0.76268    1.000
    Si1276   Si       0.21135    0.51125    0.74622    1.000
    N1277    N        0.18079    0.64041    0.84867    1.000
    Si1278   Si       0.20913    0.67024    0.83896    1.000
    N1279    N        0.20290    0.68132    0.79710    1.000
    Si1280   Si       0.20827    0.65846    0.75895    1.000
    N1281    N        0.20278    0.75183    0.81685    1.000
    Si1282   Si       0.21365    0.74817    0.85934    1.000
    N1283    N        0.20698    0.70512    0.86723    1.000
    N1284    N        0.22379    0.73064    0.75103    1.000
    Si1285   Si       0.22171    0.72180    0.79370    1.000
    Si1286   Si       0.21196    0.58398    0.92640    1.000
    N1287    N        0.17040    0.57058    0.93047    1.000
    N1288    N        0.17189    0.67433    0.99584    1.000
    N1289    N        0.20535    0.73134    0.99392    1.000
    Si1290   Si       0.17421    0.71621    0.89454    1.000
    N1291    N        0.17505    0.71373    0.93758    1.000
    Si1292   Si       0.20165    0.74659    0.95239    1.000
    N1293    N        0.18618    0.81062    0.09530    1.000
    Si1294   Si       0.20556    0.84300    0.07402    1.000
    N1295    N        0.17507    0.79005    0.01858    1.000
    N1296    N        0.17532    0.87168    0.06290    1.000
    N1297    N        0.21931    0.88022    0.00823    1.000
    Si1298   Si       0.17879    0.91004    0.04033    1.000
    N1299    N        0.17783    0.99088    0.05731    1.000
    N1300    N        0.21605    0.96858    0.09993    1.000
    N1301    N        0.21704    0.93162    0.04726    1.000
    Si1302   Si       0.22212    0.97360    0.05730    1.000
    Si1303   Si       0.17290    0.96549    0.09374    1.000
    Si1304   Si       0.21365    0.79694    0.12382    1.000
    Si1305   Si       0.21740    0.85821    0.14553    1.000
    N1306    N        0.21021    0.85527    0.22642    1.000
    N1307    N        0.18111    0.87047    0.16477    1.000
    Si1308   Si       0.17163    0.85607    0.20799    1.000
    N1309    N        0.19847    0.76259    0.14580    1.000
    N1310    N        0.22481    0.81758    0.16191    1.000
    N1311    N        0.20932    0.92174    0.20815    1.000
    Si1312   Si       0.17979    0.95278    0.20194    1.000
    N1313    N        0.16826    0.99018    0.22465    1.000
    Si1314   Si       0.20059    0.89895    0.24446    1.000
    N1315    N        0.19916    0.97998    0.17167    1.000
    N1316    N        0.19196    0.80988    0.32902    1.000
    N1317    N        0.21027    0.78782    0.26569    1.000
    N1318    N        0.20957    0.87019    0.34052    1.000
    Si1319   Si       0.21349    0.83131    0.36054    1.000
    Si1320   Si       0.16931    0.77757    0.34677    1.000
    Si1321   Si       0.16837    0.79101    0.24990    1.000
    Si1322   Si       0.20116    0.96284    0.34504    1.000
    N1323    N        0.18899    0.93286    0.26960    1.000
    Si1324   Si       0.17393    0.89326    0.34526    1.000
    N1325    N        0.19688    0.00416    0.33764    1.000
    N1326    N        0.17030    0.93616    0.33412    1.000
    Si1327   Si       0.17527    0.83590    0.48113    1.000
    Si1328   Si       0.18384    0.87040    0.41643    1.000
    N1329    N        0.19019    0.83438    0.39572    1.000
    N1330    N        0.17767    0.76576    0.38709    1.000
    Si1331   Si       0.17242    0.76741    0.48301    1.000
    N1332    N        0.21364    0.88041    0.44568    1.000
    N1333    N        0.17327    0.79939    0.45707    1.000
    Si1334   Si       0.16774    0.80129    0.41324    1.000
    N1335    N        0.21467    0.75910    0.49100    1.000
    N1336    N        0.20531    0.95691    0.38717    1.000
    N1337    N        0.21633    0.93592    0.48646    1.000
    N1338    N        0.17648    0.00534    0.47206    1.000
    Si1339   Si       0.18760    0.90735    0.46531    1.000
    N1340    N        0.17026    0.89910    0.38860    1.000
    Si1341   Si       0.16771    0.94010    0.40020    1.000
    N1342    N        0.16738    0.93965    0.44458    1.000
    N1343    N        0.19898    0.79881    0.55444    1.000
    Si1344   Si       0.19733    0.84297    0.53980    1.000
    N1345    N        0.17397    0.87494    0.56502    1.000
    Si1346   Si       0.17309    0.76933    0.61590    1.000
    N1347    N        0.21501    0.83698    0.49866    1.000
    Si1348   Si       0.20856    0.89264    0.58361    1.000
    Si1349   Si       0.19216    0.93231    0.52301    1.000
    Si1350   Si       0.20804    0.99944    0.61432    1.000
    N1351    N        0.19649    0.92745    0.61281    1.000
    Si1352   Si       0.18533    0.00545    0.51515    1.000
    N1353    N        0.22227    0.92404    0.55224    1.000
    N1354    N        0.16830    0.90008    0.50453    1.000
    N1355    N        0.16979    0.81405    0.62363    1.000
    Si1356   Si       0.17390    0.85939    0.70892    1.000
    Si1357   Si       0.20526    0.76786    0.74115    1.000
    N1358    N        0.17059    0.87063    0.66724    1.000
    N1359    N        0.21722    0.86520    0.71319    1.000
    Si1360   Si       0.19739    0.84169    0.64560    1.000
    N1361    N        0.18879    0.97365    0.71257    1.000
    N1362    N        0.22305    0.99320    0.65367    1.000
    N1363    N        0.20321    0.81864    0.82806    1.000
    N1364    N        0.17716    0.79169    0.76831    1.000
    Si1365   Si       0.17958    0.78817    0.81018    1.000
    Si1366   Si       0.20680    0.86065    0.83204    1.000
    N1367    N        0.19828    0.88187    0.86790    1.000
    N1368    N        0.20691    0.87819    0.79173    1.000
    N1369    N        0.17381    0.94322    0.77979    1.000
    Si1370   Si       0.19970    0.96391    0.75332    1.000
    Si1371   Si       0.16979    0.90095    0.78150    1.000
    N1372    N        0.17308    0.94937    0.85193    1.000
    Si1373   Si       0.20140    0.97769    0.86843    1.000
    N1374    N        0.21886    0.99529    0.77641    1.000
    Si1375   Si       0.18142    0.79831    0.90679    1.000
    N1376    N        0.21317    0.82789    0.91340    1.000
    N1377    N        0.17701    0.78234    0.94721    1.000
    Si1378   Si       0.22026    0.87022    0.90405    1.000
    Si1379   Si       0.18029    0.81140    0.98053    1.000
    N1380    N        0.17900    0.76091    0.88381    1.000
    N1381    N        0.20627    0.89683    0.93994    1.000
    Si1382   Si       0.16980    0.95813    0.97282    1.000
    Si1383   Si       0.18724    0.88752    0.97789    1.000
    N1384    N        0.21224    0.95866    0.96581    1.000
    Si1385   Si       0.20632    0.93917    0.92814    1.000
    Si1386   Si       0.25062    0.03452    0.03609    1.000
    Si1387   Si       0.24316    0.04694    0.11007    1.000
    N1388    N        0.23143    0.12513    0.07180    1.000
    N1389    N        0.24305    0.05786    0.00294    1.000
    Si1390   Si       0.27057    0.13116    0.05323    1.000
    N1391    N        0.22602    0.03815    0.07013    1.000
    N1392    N        0.28440    0.06093    0.10970    1.000
    N1393    N        0.25165    0.21759    0.05443    1.000
    N1394    N        0.26995    0.16050    0.02074    1.000
    Si1395   Si       0.24324    0.19784    0.01633    1.000
    N1396    N        0.22584    0.23971    0.00165    1.000
    Si1397   Si       0.26386    0.02295    0.18336    1.000
    N1398    N        0.24236    0.10186    0.22600    1.000
    N1399    N        0.24657    0.01633    0.14275    1.000
    N1400    N        0.23024    0.03194    0.21040    1.000
    Si1401   Si       0.27632    0.12695    0.23401    1.000
    Si1402   Si       0.24228    0.05960    0.24095    1.000
    N1403    N        0.24014    0.23991    0.12253    1.000
    Si1404   Si       0.27675    0.22920    0.14808    1.000
    N1405    N        0.26976    0.22693    0.19158    1.000
    Si1406   Si       0.28210    0.14870    0.15967    1.000
    N1407    N        0.24397    0.13864    0.14434    1.000
    Si1408   Si       0.25962    0.09436    0.35667    1.000
    N1409    N        0.23488    0.05981    0.28237    1.000
    N1410    N        0.26662    0.13735    0.27490    1.000
    N1411    N        0.26882    0.22973    0.30551    1.000
    Si1412   Si       0.25365    0.16795    0.35433    1.000
    N1413    N        0.22702    0.17315    0.32041    1.000
    Si1414   Si       0.22618    0.21602    0.31065    1.000
    Si1415   Si       0.22493    0.14409    0.28928    1.000
    N1416    N        0.24216    0.13028    0.37229    1.000
    N1417    N        0.26785    0.10848    0.49807    1.000
    Si1418   Si       0.22781    0.09608    0.48043    1.000
    N1419    N        0.27284    0.12031    0.42536    1.000
    N1420    N        0.23010    0.05366    0.47239    1.000
    N1421    N        0.24994    0.00989    0.37870    1.000
    Si1422   Si       0.23765    0.21803    0.41080    1.000
    Si1423   Si       0.28399    0.13625    0.46568    1.000
    N1424    N        0.25609    0.16797    0.46666    1.000
    Si1425   Si       0.23445    0.13777    0.41566    1.000
    Si1426   Si       0.25782    0.20944    0.48213    1.000
    N1427    N        0.25445    0.23625    0.44627    1.000
    N1428    N        0.26318    0.20787    0.37432    1.000
    N1429    N        0.25874    0.11876    0.57285    1.000
    N1430    N        0.24027    0.06204    0.53973    1.000
    Si1431   Si       0.27196    0.09199    0.53982    1.000
    Si1432   Si       0.25280    0.03604    0.50716    1.000
    Si1433   Si       0.27653    0.11765    0.61320    1.000
    Si1434   Si       0.23362    0.24114    0.55140    1.000
    N1435    N        0.27370    0.25257    0.55789    1.000
    N1436    N        0.23296    0.21049    0.51795    1.000
    N1437    N        0.27380    0.23360    0.62209    1.000
    N1438    N        0.24268    0.09997    0.63524    1.000
    Si1439   Si       0.25276    0.08243    0.67314    1.000
    N1440    N        0.27011    0.10829    0.70256    1.000
    Si1441   Si       0.24556    0.02306    0.67710    1.000
    N1442    N        0.28006    0.04731    0.66482    1.000
    Si1443   Si       0.23281    0.23888    0.62737    1.000
    N1444    N        0.23161    0.23168    0.73364    1.000
    N1445    N        0.28085    0.19657    0.70105    1.000
    Si1446   Si       0.24617    0.13538    0.72934    1.000
    Si1447   Si       0.23890    0.20427    0.70040    1.000
    N1448    N        0.26847    0.09916    0.79881    1.000
    Si1449   Si       0.24241    0.01177    0.81048    1.000
    Si1450   Si       0.22565    0.09333    0.79582    1.000
    N1451    N        0.28414    0.02542    0.81186    1.000
    Si1452   Si       0.26154    0.25218    0.75845    1.000
    Si1453   Si       0.23924    0.14959    0.84532    1.000
    N1454    N        0.26362    0.23293    0.83626    1.000
    N1455    N        0.26860    0.16666    0.81818    1.000
    N1456    N        0.27774    0.15348    0.75352    1.000
    Si1457   Si       0.23983    0.21998    0.87201    1.000
    N1458    N        0.25319    0.09540    0.94667    1.000
    Si1459   Si       0.23636    0.11747    0.91173    1.000
    N1460    N        0.24738    0.03071    0.91257    1.000
    Si1461   Si       0.28057    0.01186    0.92859    1.000
    N1462    N        0.25947    0.12700    0.87765    1.000
    Si1463   Si       0.22094    0.07637    0.97011    1.000
    Si1464   Si       0.27345    0.24648    0.98415    1.000
    Si1465   Si       0.25823    0.18234    0.93787    1.000
    N1466    N        0.26558    0.20902    0.90365    1.000
    N1467    N        0.26805    0.20192    0.97364    1.000
    N1468    N        0.22565    0.15266    0.93543    1.000
    Si1469   Si       0.24235    0.30844    0.07263    1.000
    N1470    N        0.25578    0.34744    0.06101    1.000
    N1471    N        0.27764    0.28090    0.07332    1.000
    N1472    N        0.22794    0.31176    0.11298    1.000
    N1473    N        0.24123    0.49833    0.03712    1.000
    N1474    N        0.26025    0.49765    0.11109    1.000
    Si1475   Si       0.24951    0.39958    0.99701    1.000
    Si1476   Si       0.23343    0.50820    0.08020    1.000
    Si1477   Si       0.22546    0.38066    0.05624    1.000
    N1478    N        0.22484    0.42619    0.05746    1.000
    N1479    N        0.24756    0.44272    0.99480    1.000
    N1480    N        0.25305    0.37672    0.12880    1.000
    N1481    N        0.25160    0.28852    0.17469    1.000
    Si1482   Si       0.26568    0.37363    0.21445    1.000
    Si1483   Si       0.24898    0.25963    0.20911    1.000
    N1484    N        0.26793    0.27203    0.24696    1.000
    N1485    N        0.24007    0.40045    0.19295    1.000
    N1486    N        0.26913    0.49572    0.18426    1.000
    N1487    N        0.28065    0.43716    0.14915    1.000
    Si1488   Si       0.24472    0.41348    0.15177    1.000
    Si1489   Si       0.28205    0.48080    0.14459    1.000
    N1490    N        0.25605    0.37027    0.35011    1.000
    Si1491   Si       0.26617    0.31323    0.26361    1.000
    N1492    N        0.26603    0.31667    0.30675    1.000
    Si1493   Si       0.23580    0.28799    0.32945    1.000
    N1494    N        0.26803    0.27581    0.36197    1.000
    N1495    N        0.24646    0.34521    0.24441    1.000
    Si1496   Si       0.22665    0.48765    0.26380    1.000
    Si1497   Si       0.26773    0.46438    0.36911    1.000
    N1498    N        0.22672    0.45271    0.35885    1.000
    N1499    N        0.24132    0.44934    0.24718    1.000
    N1500    N        0.28300    0.49988    0.34643    1.000
    Si1501   Si       0.28331    0.43992    0.25864    1.000
    Si1502   Si       0.25483    0.28104    0.45425    1.000
    N1503    N        0.24912    0.35964    0.45732    1.000
    N1504    N        0.28340    0.30330    0.42792    1.000
    N1505    N        0.26398    0.29394    0.49586    1.000
    N1506    N        0.28322    0.48727    0.47713    1.000
    N1507    N        0.24514    0.41060    0.41044    1.000
    Si1508   Si       0.25202    0.40217    0.45101    1.000
    Si1509   Si       0.25639    0.49815    0.44357    1.000
    Si1510   Si       0.27395    0.39234    0.38365    1.000
    N1511    N        0.27477    0.48149    0.40845    1.000
    N1512    N        0.24363    0.33080    0.56287    1.000
    Si1513   Si       0.24577    0.31785    0.60378    1.000
    Si1514   Si       0.25454    0.37120    0.55802    1.000
    Si1515   Si       0.23201    0.30961    0.52402    1.000
    N1516    N        0.26305    0.38825    0.59609    1.000
    Si1517   Si       0.27160    0.48767    0.51732    1.000
    N1518    N        0.26464    0.44695    0.52558    1.000
    N1519    N        0.24568    0.48991    0.58135    1.000
    Si1520   Si       0.22612    0.42850    0.51629    1.000
    Si1521   Si       0.26483    0.47542    0.61787    1.000
    Si1522   Si       0.27255    0.37287    0.70860    1.000
    N1523    N        0.24110    0.34307    0.72216    1.000
    N1524    N        0.23412    0.34188    0.63654    1.000
    Si1525   Si       0.24302    0.38487    0.63432    1.000
    N1526    N        0.23471    0.47084    0.65014    1.000
    Si1527   Si       0.25155    0.48361    0.68782    1.000
    N1528    N        0.26687    0.39263    0.66972    1.000
    N1529    N        0.23231    0.47694    0.72660    1.000
    Si1530   Si       0.23376    0.43410    0.73617    1.000
    N1531    N        0.26755    0.40594    0.73628    1.000
    Si1532   Si       0.26436    0.36774    0.81661    1.000
    N1533    N        0.26852    0.30040    0.85886    1.000
    Si1534   Si       0.25442    0.31508    0.75406    1.000
    N1535    N        0.27514    0.34559    0.78127    1.000
    N1536    N        0.22826    0.28335    0.76670    1.000
    Si1537   Si       0.27019    0.44190    0.83468    1.000
    N1538    N        0.22900    0.45507    0.83917    1.000
    N1539    N        0.27648    0.40928    0.80720    1.000
    Si1540   Si       0.22803    0.49253    0.86359    1.000
    Si1541   Si       0.23385    0.29537    0.88526    1.000
    N1542    N        0.26049    0.32055    0.91737    1.000
    Si1543   Si       0.25337    0.36870    0.92312    1.000
    N1544    N        0.26713    0.37724    0.96435    1.000
    N1545    N        0.26098    0.29239    0.98822    1.000
    Si1546   Si       0.28413    0.30274    0.95215    1.000
    Si1547   Si       0.23609    0.50644    0.93433    1.000
    N1548    N        0.26053    0.50447    0.97134    1.000
    Si1549   Si       0.28090    0.46605    0.97961    1.000
    N1550    N        0.24760    0.48154    0.90063    1.000
    N1551    N        0.24726    0.41089    0.91084    1.000
    Si1552   Si       0.27248    0.44487    0.90690    1.000
    Si1553   Si       0.25258    0.57496    0.06088    1.000
    Si1554   Si       0.25029    0.52865    0.00536    1.000
    N1555    N        0.27571    0.55618    0.02908    1.000
    N1556    N        0.22945    0.60499    0.03687    1.000
    N1557    N        0.27863    0.59399    0.08862    1.000
    N1558    N        0.22436    0.55073    0.08119    1.000
    N1559    N        0.22541    0.68261    0.04104    1.000
    N1560    N        0.24042    0.71332    0.10429    1.000
    Si1561   Si       0.24654    0.71331    0.06257    1.000
    Si1562   Si       0.23875    0.64379    0.05556    1.000
    N1563    N        0.23162    0.75274    0.05069    1.000
    N1564    N        0.28138    0.64206    0.04441    1.000
    N1565    N        0.24311    0.55695    0.18924    1.000
    Si1566   Si       0.22996    0.51521    0.18912    1.000
    N1567    N        0.26756    0.62257    0.14879    1.000
    Si1568   Si       0.22768    0.62961    0.13390    1.000
    Si1569   Si       0.28230    0.57117    0.20221    1.000
    N1570    N        0.26006    0.74518    0.16541    1.000
    Si1571   Si       0.26543    0.74474    0.12223    1.000
    N1572    N        0.26130    0.67622    0.19424    1.000
    N1573    N        0.26442    0.72629    0.23825    1.000
    Si1574   Si       0.27224    0.71786    0.19502    1.000
    N1575    N        0.25087    0.59068    0.26333    1.000
    Si1576   Si       0.25630    0.53823    0.34992    1.000
    Si1577   Si       0.26724    0.55104    0.27484    1.000
    Si1578   Si       0.25961    0.60429    0.34127    1.000
    N1579    N        0.23357    0.57842    0.36219    1.000
    N1580    N        0.27750    0.56514    0.31818    1.000
    N1581    N        0.26073    0.50881    0.28355    1.000
    N1582    N        0.27005    0.65962    0.27322    1.000
    N1583    N        0.23919    0.64461    0.33596    1.000
    Si1584   Si       0.23525    0.66002    0.29722    1.000
    N1585    N        0.21853    0.69878    0.29687    1.000
    Si1586   Si       0.22218    0.66297    0.37101    1.000
    Si1587   Si       0.27858    0.60274    0.46770    1.000
    Si1588   Si       0.24439    0.56369    0.41424    1.000
    N1589    N        0.24943    0.53870    0.45100    1.000
    N1590    N        0.24971    0.60156    0.43373    1.000
    N1591    N        0.27679    0.54734    0.38966    1.000
    Si1592   Si       0.23972    0.54730    0.49417    1.000
    N1593    N        0.27649    0.64713    0.47221    1.000
    N1594    N        0.24736    0.66686    0.40884    1.000
    Si1595   Si       0.25085    0.71006    0.40309    1.000
    N1596    N        0.27655    0.73325    0.37649    1.000
    Si1597   Si       0.24605    0.58422    0.60142    1.000
    N1598    N        0.27306    0.56265    0.57363    1.000
    N1599    N        0.24855    0.62771    0.59649    1.000
    N1600    N        0.27128    0.57754    0.50233    1.000
    Si1601   Si       0.27776    0.52055    0.57540    1.000
    N1602    N        0.23780    0.51307    0.52072    1.000
    N1603    N        0.25097    0.74245    0.56509    1.000
    N1604    N        0.26923    0.66931    0.54290    1.000
    Si1605   Si       0.23615    0.65374    0.56455    1.000
    Si1606   Si       0.23037    0.72008    0.59537    1.000
    Si1607   Si       0.25993    0.67665    0.49938    1.000
    N1608    N        0.28167    0.71537    0.49594    1.000
    Si1609   Si       0.28384    0.73135    0.53734    1.000
    N1610    N        0.24805    0.57522    0.64205    1.000
    Si1611   Si       0.26840    0.59695    0.67498    1.000
    N1612    N        0.23608    0.58890    0.70246    1.000
    N1613    N        0.26032    0.52424    0.68155    1.000
    Si1614   Si       0.22402    0.54972    0.67193    1.000
    Si1615   Si       0.27223    0.65179    0.62243    1.000
    N1616    N        0.26164    0.69904    0.62109    1.000
    Si1617   Si       0.25603    0.71808    0.66195    1.000
    N1618    N        0.28072    0.63540    0.66115    1.000
    Si1619   Si       0.25720    0.70720    0.73458    1.000
    N1620    N        0.27514    0.69633    0.69432    1.000
    N1621    N        0.24530    0.52473    0.84053    1.000
    N1622    N        0.27003    0.60925    0.78364    1.000
    Si1623   Si       0.23090    0.59386    0.78176    1.000
    N1624    N        0.25906    0.71664    0.81544    1.000
    N1625    N        0.24950    0.65462    0.84415    1.000
    N1626    N        0.24937    0.66823    0.75094    1.000
    Si1627   Si       0.28347    0.64497    0.76290    1.000
    Si1628   Si       0.28141    0.68269    0.83008    1.000
    Si1629   Si       0.25920    0.62492    0.87553    1.000
    N1630    N        0.23153    0.54662    0.92240    1.000
    N1631    N        0.22238    0.60344    0.88780    1.000
    N1632    N        0.22078    0.60800    0.96120    1.000
    N1633    N        0.26626    0.64728    0.91164    1.000
    N1634    N        0.24318    0.66572    0.98289    1.000
    Si1635   Si       0.25085    0.63773    0.95150    1.000
    N1636    N        0.24859    0.78249    0.10665    1.000
    Si1637   Si       0.25393    0.78564    0.06268    1.000
    Si1638   Si       0.27203    0.86995    0.09133    1.000
    Si1639   Si       0.23845    0.83993    0.00966    1.000
    N1640    N        0.23526    0.82188    0.04797    1.000
    N1641    N        0.22999    0.86196    0.10562    1.000
    N1642    N        0.27212    0.88115    0.04802    1.000
    N1643    N        0.27962    0.83815    0.99800    1.000
    Si1644   Si       0.24732    0.90834    0.02627    1.000
    N1645    N        0.24529    0.99182    0.02688    1.000
    N1646    N        0.26892    0.93403    0.99858    1.000
    Si1647   Si       0.24450    0.84058    0.20167    1.000
    N1648    N        0.24914    0.87557    0.17322    1.000
    N1649    N        0.25601    0.79746    0.21095    1.000
    N1650    N        0.27729    0.85437    0.23263    1.000
    Si1651   Si       0.22976    0.77619    0.17940    1.000
    Si1652   Si       0.24115    0.76567    0.24223    1.000
    Si1653   Si       0.24524    0.91737    0.18421    1.000
    Si1654   Si       0.22869    0.97750    0.14044    1.000
    N1655    N        0.25820    0.94707    0.15289    1.000
    N1656    N        0.27582    0.92231    0.21595    1.000
    N1657    N        0.25541    0.83157    0.31249    1.000
    Si1658   Si       0.26605    0.77054    0.35568    1.000
    Si1659   Si       0.24463    0.87422    0.31404    1.000
    N1660    N        0.27643    0.78587    0.26977    1.000
    Si1661   Si       0.22693    0.79802    0.30284    1.000
    N1662    N        0.23896    0.75964    0.32364    1.000
    N1663    N        0.24476    0.80431    0.37475    1.000
    N1664    N        0.27229    0.88932    0.34374    1.000
    N1665    N        0.23669    0.94789    0.32245    1.000
    N1666    N        0.24377    0.97648    0.26041    1.000
    N1667    N        0.24381    0.89847    0.27443    1.000
    Si1668   Si       0.27044    0.93360    0.34541    1.000
    Si1669   Si       0.23034    0.94251    0.27955    1.000
    Si1670   Si       0.27879    0.89496    0.24968    1.000
    Si1671   Si       0.27864    0.99607    0.24704    1.000
    Si1672   Si       0.26734    0.81355    0.41243    1.000
    Si1673   Si       0.24923    0.85464    0.45539    1.000
    N1674    N        0.26776    0.85692    0.41380    1.000
    N1675    N        0.24836    0.80810    0.45030    1.000
    Si1676   Si       0.23365    0.79675    0.48943    1.000
    N1677    N        0.27533    0.86479    0.48840    1.000
    N1678    N        0.27192    0.94643    0.38731    1.000
    N1679    N        0.23377    0.98841    0.44327    1.000
    Si1680   Si       0.24219    0.97517    0.40367    1.000
    N1681    N        0.28211    0.95842    0.48456    1.000
    Si1682   Si       0.23959    0.96935    0.48003    1.000
    N1683    N        0.26150    0.80222    0.52405    1.000
    N1684    N        0.24795    0.80495    0.59844    1.000
    Si1685   Si       0.25463    0.84654    0.59860    1.000
    N1686    N        0.23439    0.85933    0.55960    1.000
    Si1687   Si       0.26354    0.84946    0.52741    1.000
    Si1688   Si       0.23901    0.78589    0.56205    1.000
    N1689    N        0.22630    0.86952    0.62418    1.000
    Si1690   Si       0.25317    0.94801    0.57313    1.000
    N1691    N        0.26343    0.92183    0.60485    1.000
    N1692    N        0.22745    0.00075    0.51087    1.000
    N1693    N        0.23491    0.98317    0.58626    1.000
    Si1694   Si       0.24052    0.82719    0.70255    1.000
    Si1695   Si       0.23851    0.78363    0.63463    1.000
    N1696    N        0.23839    0.79709    0.73457    1.000
    N1697    N        0.26938    0.76094    0.65474    1.000
    N1698    N        0.27833    0.84933    0.69299    1.000
    N1699    N        0.22637    0.81320    0.66303    1.000
    N1700    N        0.22988    0.92651    0.67582    1.000
    N1701    N        0.22908    0.93330    0.74394    1.000
    Si1702   Si       0.23646    0.90440    0.71185    1.000
    Si1703   Si       0.23163    0.91260    0.63641    1.000
    N1704    N        0.25387    0.99362    0.70807    1.000
    Si1705   Si       0.22230    0.96815    0.68821    1.000
    N1706    N        0.25166    0.85750    0.83015    1.000
    Si1707   Si       0.24837    0.81044    0.83313    1.000
    Si1708   Si       0.25093    0.87511    0.79107    1.000
    N1709    N        0.27184    0.84898    0.76402    1.000
    Si1710   Si       0.27252    0.80359    0.76174    1.000
    N1711    N        0.26842    0.78608    0.80076    1.000
    N1712    N        0.24234    0.78077    0.86663    1.000
    N1713    N        0.23686    0.99013    0.84678    1.000
    Si1714   Si       0.27061    0.93465    0.75386    1.000
    N1715    N        0.27270    0.91108    0.79101    1.000
    Si1716   Si       0.26408    0.96541    0.86991    1.000
    Si1717   Si       0.23676    0.80565    0.93969    1.000
    N1718    N        0.27910    0.81354    0.92721    1.000
    N1719    N        0.26217    0.87686    0.89200    1.000
    Si1720   Si       0.27930    0.79539    0.88854    1.000
    N1721    N        0.24056    0.76061    0.93751    1.000
    N1722    N        0.22200    0.81629    0.97677    1.000
    N1723    N        0.22887    0.95283    0.89452    1.000
    Si1724   Si       0.24626    0.97042    0.98919    1.000
    N1725    N        0.27713    0.99360    0.96914    1.000
    Si1726   Si       0.31753    0.07559    0.01143    1.000
    Si1727   Si       0.30913    0.06209    0.07323    1.000
    N1728    N        0.29434    0.02879    0.04201    1.000
    N1729    N        0.29245    0.09405    0.04242    1.000
    Si1730   Si       0.32629    0.12860    0.10703    1.000
    N1731    N        0.33183    0.02430    0.08953    1.000
    N1732    N        0.34027    0.09286    0.08821    1.000
    N1733    N        0.30503    0.23840    0.01498    1.000
    N1734    N        0.31628    0.22411    0.08170    1.000
    Si1735   Si       0.31172    0.18685    0.10055    1.000
    N1736    N        0.29338    0.14854    0.08583    1.000
    Si1737   Si       0.28710    0.24155    0.05536    1.000
    N1738    N        0.33571    0.17647    0.99926    1.000
    Si1739   Si       0.30828    0.06030    0.22330    1.000
    Si1740   Si       0.30690    0.07236    0.14629    1.000
    N1741    N        0.30735    0.11527    0.14523    1.000
    N1742    N        0.31287    0.10211    0.23175    1.000
    N1743    N        0.29059    0.05747    0.18245    1.000
    N1744    N        0.30779    0.26160    0.14100    1.000
    N1745    N        0.28629    0.15766    0.20299    1.000
    N1746    N        0.33558    0.21904    0.18901    1.000
    N1747    N        0.29317    0.18770    0.14026    1.000
    Si1748   Si       0.30006    0.19941    0.20818    1.000
    N1749    N        0.28687    0.02191    0.32218    1.000
    Si1750   Si       0.28731    0.02720    0.36697    1.000
    Si1751   Si       0.28013    0.05329    0.29464    1.000
    N1752    N        0.28304    0.04158    0.25248    1.000
    N1753    N        0.28021    0.09133    0.31747    1.000
    N1754    N        0.34544    0.05289    0.28716    1.000
    Si1755   Si       0.29781    0.13036    0.30505    1.000
    N1756    N        0.33569    0.13974    0.28652    1.000
    Si1757   Si       0.29277    0.24403    0.27000    1.000
    N1758    N        0.32662    0.22282    0.34526    1.000
    N1759    N        0.29495    0.15866    0.33898    1.000
    Si1760   Si       0.32952    0.17619    0.35954    1.000
    N1761    N        0.30912    0.20837    0.25209    1.000
    Si1762   Si       0.33826    0.18039    0.26674    1.000
    Si1763   Si       0.28220    0.23676    0.34790    1.000
    N1764    N        0.32273    0.07663    0.44377    1.000
    Si1765   Si       0.32277    0.04361    0.46969    1.000
    Si1766   Si       0.30680    0.09701    0.41019    1.000
    N1767    N        0.33611    0.12457    0.39287    1.000
    N1768    N        0.28896    0.07026    0.37842    1.000
    N1769    N        0.33878    0.19054    0.40012    1.000
    Si1770   Si       0.33143    0.18433    0.49194    1.000
    N1771    N        0.32254    0.15358    0.45902    1.000
    N1772    N        0.31444    0.08492    0.54401    1.000
    Si1773   Si       0.32707    0.04319    0.53274    1.000
    N1774    N        0.29620    0.03461    0.50242    1.000
    N1775    N        0.33233    0.01655    0.56832    1.000
    N1776    N        0.30954    0.19504    0.57358    1.000
    Si1777   Si       0.30472    0.22619    0.54476    1.000
    Si1778   Si       0.29339    0.19612    0.61433    1.000
    N1779    N        0.29882    0.20998    0.50381    1.000
    N1780    N        0.34155    0.24759    0.53619    1.000
    N1781    N        0.31270    0.09351    0.62886    1.000
    N1782    N        0.31168    0.02618    0.73602    1.000
    Si1783   Si       0.31974    0.05888    0.65502    1.000
    Si1784   Si       0.31317    0.10988    0.70725    1.000
    N1785    N        0.33484    0.07823    0.68846    1.000
    N1786    N        0.34301    0.02587    0.64074    1.000
    Si1787   Si       0.34065    0.24522    0.64107    1.000
    N1788    N        0.32485    0.20364    0.64530    1.000
    Si1789   Si       0.29740    0.19064    0.74044    1.000
    N1790    N        0.32759    0.14708    0.69038    1.000
    Si1791   Si       0.30213    0.17395    0.66900    1.000
    N1792    N        0.28257    0.15693    0.63038    1.000
    N1793    N        0.30478    0.07678    0.85475    1.000
    N1794    N        0.32807    0.07179    0.78614    1.000
    Si1795   Si       0.29392    0.06862    0.81364    1.000
    Si1796   Si       0.34023    0.03531    0.76732    1.000
    N1797    N        0.33959    0.00848    0.85956    1.000
    Si1798   Si       0.28616    0.13733    0.79149    1.000
    N1799    N        0.32893    0.13841    0.80393    1.000
    N1800    N        0.32719    0.20447    0.82948    1.000
    Si1801   Si       0.28647    0.20486    0.81380    1.000
    N1802    N        0.28598    0.21863    0.77181    1.000
    Si1803   Si       0.30232    0.11459    0.87806    1.000
    Si1804   Si       0.33027    0.04948    0.87749    1.000
    N1805    N        0.31343    0.04040    0.91647    1.000
    N1806    N        0.32062    0.04001    0.98427    1.000
    Si1807   Si       0.29457    0.10791    0.94811    1.000
    N1808    N        0.31824    0.10932    0.98389    1.000
    N1809    N        0.32196    0.10641    0.91555    1.000
    Si1810   Si       0.30139    0.23156    0.91308    1.000
    Si1811   Si       0.29511    0.16798    0.98558    1.000
    N1812    N        0.31345    0.25309    0.87861    1.000
    N1813    N        0.33212    0.20392    0.92153    1.000
    N1814    N        0.32572    0.15127    0.87411    1.000
    N1815    N        0.29354    0.15229    0.94460    1.000
    Si1816   Si       0.32798    0.15931    0.91728    1.000
    N1817    N        0.29229    0.25967    0.94471    1.000
    Si1818   Si       0.29717    0.36223    0.05175    1.000
    Si1819   Si       0.30953    0.28469    0.10316    1.000
    N1820    N        0.33382    0.34096    0.03530    1.000
    N1821    N        0.31240    0.38289    0.08635    1.000
    Si1822   Si       0.31990    0.41649    0.01677    1.000
    N1823    N        0.31183    0.45902    0.00840    1.000
    N1824    N        0.28540    0.39423    0.02585    1.000
    N1825    N        0.34352    0.43697    0.12059    1.000
    Si1826   Si       0.29715    0.36678    0.12510    1.000
    N1827    N        0.30078    0.32242    0.12598    1.000
    N1828    N        0.32347    0.29489    0.19249    1.000
    Si1829   Si       0.32170    0.33203    0.21402    1.000
    Si1830   Si       0.29232    0.30702    0.16595    1.000
    N1831    N        0.33284    0.38089    0.14990    1.000
    N1832    N        0.28734    0.34508    0.19024    1.000
    Si1833   Si       0.33838    0.25819    0.17286    1.000
    Si1834   Si       0.33732    0.40641    0.22735    1.000
    N1835    N        0.29257    0.40266    0.23717    1.000
    N1836    N        0.32090    0.49888    0.13515    1.000
    Si1837   Si       0.32214    0.42236    0.15755    1.000
    Si1838   Si       0.29768    0.50660    0.21810    1.000
    N1839    N        0.34207    0.43618    0.19433    1.000
    N1840    N        0.30915    0.47206    0.24153    1.000
    N1841    N        0.31132    0.32379    0.25445    1.000
    N1842    N        0.31232    0.38027    0.31700    1.000
    N1843    N        0.31140    0.32810    0.36249    1.000
    Si1844   Si       0.28847    0.34647    0.33169    1.000
    N1845    N        0.32966    0.26372    0.28333    1.000
    Si1846   Si       0.29498    0.49182    0.30527    1.000
    Si1847   Si       0.31312    0.42353    0.32852    1.000
    N1848    N        0.29070    0.44757    0.30054    1.000
    N1849    N        0.29197    0.42836    0.36539    1.000
    N1850    N        0.33845    0.49851    0.30030    1.000
    N1851    N        0.33106    0.26444    0.39985    1.000
    N1852    N        0.29664    0.36823    0.41242    1.000
    Si1853   Si       0.30016    0.29331    0.38729    1.000
    Si1854   Si       0.33259    0.35249    0.39401    1.000
    N1855    N        0.31419    0.33884    0.48142    1.000
    N1856    N        0.33486    0.27152    0.47406    1.000
    Si1857   Si       0.28568    0.34313    0.44552    1.000
    N1858    N        0.34228    0.49216    0.37699    1.000
    N1859    N        0.28860    0.41087    0.47250    1.000
    Si1860   Si       0.32185    0.49315    0.46233    1.000
    N1861    N        0.33670    0.45693    0.44149    1.000
    Si1862   Si       0.32904    0.42152    0.46258    1.000
    Si1863   Si       0.32352    0.35137    0.52519    1.000
    N1864    N        0.32750    0.30907    0.53571    1.000
    N1865    N        0.29385    0.38029    0.53963    1.000
    N1866    N        0.33081    0.26195    0.60066    1.000
    Si1867   Si       0.28641    0.26553    0.59632    1.000
    N1868    N        0.28667    0.30586    0.60759    1.000
    Si1869   Si       0.30793    0.29780    0.49788    1.000
    N1870    N        0.33818    0.38959    0.60097    1.000
    N1871    N        0.31828    0.43824    0.56277    1.000
    Si1872   Si       0.29913    0.42075    0.52092    1.000
    Si1873   Si       0.30047    0.41030    0.59261    1.000
    N1874    N        0.33946    0.42644    0.50288    1.000
    N1875    N        0.29391    0.50646    0.61421    1.000
    Si1876   Si       0.32879    0.30749    0.62465    1.000
    N1877    N        0.30630    0.34567    0.71431    1.000
    N1878    N        0.32796    0.34338    0.65011    1.000
    N1879    N        0.32865    0.28011    0.66265    1.000
    Si1880   Si       0.33144    0.32004    0.68589    1.000
    Si1881   Si       0.28987    0.42886    0.66467    1.000
    N1882    N        0.33123    0.41490    0.66534    1.000
    N1883    N        0.28643    0.44001    0.62287    1.000
    N1884    N        0.28775    0.46042    0.69264    1.000
    Si1885   Si       0.31284    0.47273    0.72798    1.000
    Si1886   Si       0.31319    0.34735    0.75901    1.000
    Si1887   Si       0.29114    0.26588    0.84342    1.000
    N1888    N        0.32164    0.26760    0.81161    1.000
    Si1889   Si       0.32500    0.28341    0.77181    1.000
    N1890    N        0.28807    0.28803    0.75190    1.000
    N1891    N        0.28870    0.36307    0.85101    1.000
    N1892    N        0.32669    0.38705    0.76437    1.000
    N1893    N        0.29695    0.47791    0.83106    1.000
    N1894    N        0.30241    0.45801    0.76699    1.000
    Si1895   Si       0.29318    0.41510    0.76905    1.000
    Si1896   Si       0.32724    0.45851    0.85981    1.000
    Si1897   Si       0.32729    0.46964    0.79963    1.000
    N1898    N        0.29612    0.43013    0.87057    1.000
    N1899    N        0.33274    0.31701    0.87684    1.000
    Si1900   Si       0.29167    0.33042    0.88178    1.000
    N1901    N        0.31655    0.32868    0.96498    1.000
    Si1902   Si       0.30832    0.37192    0.95422    1.000
    N1903    N        0.30068    0.36918    0.91114    1.000
    Si1904   Si       0.34080    0.46275    0.93568    1.000
    N1905    N        0.29726    0.45322    0.94046    1.000
    N1906    N        0.33389    0.39653    0.98102    1.000
    Si1907   Si       0.31175    0.39079    0.87409    1.000
    Si1908   Si       0.31907    0.56086    0.02814    1.000
    Si1909   Si       0.31207    0.62272    0.07405    1.000
    N1910    N        0.33563    0.59266    0.05268    1.000
    N1911    N        0.32633    0.61861    0.11738    1.000
    N1912    N        0.33559    0.52111    0.03657    1.000
    Si1913   Si       0.31936    0.74417    0.07332    1.000
    Si1914   Si       0.32613    0.68834    0.04196    1.000
    N1915    N        0.31691    0.67695    0.00073    1.000
    N1916    N        0.29060    0.71209    0.05892    1.000
    N1917    N        0.30807    0.74115    0.11597    1.000
    Si1918   Si       0.28141    0.65370    0.00201    1.000
    N1919    N        0.30344    0.56640    0.16321    1.000
    Si1920   Si       0.33093    0.53350    0.15896    1.000
    Si1921   Si       0.29360    0.59485    0.13019    1.000
    N1922    N        0.28943    0.54516    0.23566    1.000
    N1923    N        0.28843    0.61309    0.21520    1.000
    N1924    N        0.33644    0.51285    0.19496    1.000
    N1925    N        0.31701    0.72355    0.19096    1.000
    Si1926   Si       0.33667    0.68709    0.20268    1.000
    Si1927   Si       0.28520    0.64294    0.18281    1.000
    Si1928   Si       0.32977    0.74239    0.15303    1.000
    N1929    N        0.32249    0.67332    0.24084    1.000
    N1930    N        0.32326    0.65772    0.17331    1.000
    N1931    N        0.31953    0.61187    0.28028    1.000
    N1932    N        0.30184    0.61486    0.34942    1.000
    Si1933   Si       0.31556    0.58858    0.31782    1.000
    Si1934   Si       0.28278    0.61951    0.25834    1.000
    N1935    N        0.30479    0.71701    0.29335    1.000
    N1936    N        0.32190    0.68379    0.35865    1.000
    Si1937   Si       0.33692    0.69907    0.32098    1.000
    Si1938   Si       0.28889    0.69534    0.25856    1.000
    Si1939   Si       0.32701    0.64222    0.37226    1.000
    Si1940   Si       0.30422    0.76100    0.29280    1.000
    N1941    N        0.31826    0.59326    0.45400    1.000
    N1942    N        0.32248    0.52413    0.43192    1.000
    Si1943   Si       0.30556    0.51326    0.39151    1.000
    Si1944   Si       0.34201    0.56310    0.43526    1.000
    N1945    N        0.32166    0.64577    0.41513    1.000
    Si1946   Si       0.31454    0.71447    0.38855    1.000
    N1947    N        0.29332    0.70381    0.42762    1.000
    N1948    N        0.33493    0.75144    0.46169    1.000
    N1949    N        0.33903    0.67652    0.47301    1.000
    Si1950   Si       0.31490    0.71454    0.46479    1.000
    Si1951   Si       0.28494    0.66213    0.43213    1.000
    N1952    N        0.31088    0.62131    0.54384    1.000
    Si1953   Si       0.29555    0.58086    0.53936    1.000
    N1954    N        0.33775    0.56484    0.53673    1.000
    Si1955   Si       0.34072    0.52082    0.52793    1.000
    N1956    N        0.30238    0.50832    0.54084    1.000
    N1957    N        0.31382    0.66280    0.60227    1.000
    N1958    N        0.31470    0.70908    0.55991    1.000
    Si1959   Si       0.29990    0.70661    0.59980    1.000
    Si1960   Si       0.31451    0.66251    0.55782    1.000
    Si1961   Si       0.33697    0.51367    0.62343    1.000
    N1962    N        0.30375    0.57548    0.68915    1.000
    Si1963   Si       0.33024    0.59897    0.71663    1.000
    N1964    N        0.30809    0.51769    0.73084    1.000
    Si1965   Si       0.30200    0.53251    0.68871    1.000
    N1966    N        0.33548    0.51548    0.66671    1.000
    N1967    N        0.33686    0.67388    0.66618    1.000
    N1968    N        0.30702    0.63508    0.72663    1.000
    Si1969   Si       0.30256    0.65999    0.69001    1.000
    Si1970   Si       0.31962    0.75188    0.73330    1.000
    N1971    N        0.32951    0.74068    0.69254    1.000
    N1972    N        0.32162    0.73605    0.62097    1.000
    Si1973   Si       0.29905    0.59433    0.81362    1.000
    N1974    N        0.29936    0.55108    0.80313    1.000
    Si1975   Si       0.31989    0.53755    0.76783    1.000
    Si1976   Si       0.29022    0.52181    0.83496    1.000
    N1977    N        0.29010    0.59852    0.85651    1.000
    N1978    N        0.31979    0.53184    0.86619    1.000
    N1979    N        0.33875    0.61190    0.81144    1.000
    N1980    N        0.28747    0.73075    0.75403    1.000
    N1981    N        0.32375    0.74697    0.82410    1.000
    N1982    N        0.30310    0.66575    0.79767    1.000
    N1983    N        0.30683    0.68800    0.86502    1.000
    Si1984   Si       0.28551    0.74620    0.79849    1.000
    Si1985   Si       0.31613    0.57241    0.87972    1.000
    Si1986   Si       0.31854    0.59808    0.95354    1.000
    N1987    N        0.28918    0.62267    0.97167    1.000
    N1988    N        0.30465    0.57501    0.92146    1.000
    N1989    N        0.33237    0.57402    0.98881    1.000
    Si1990   Si       0.28094    0.74682    0.93620    1.000
    Si1991   Si       0.29730    0.67718    0.90579    1.000
    Si1992   Si       0.32541    0.69166    0.96055    1.000
    N1993    N        0.33307    0.66232    0.92942    1.000
    N1994    N        0.28975    0.70584    0.93805    1.000
    Si1995   Si       0.30308    0.86192    0.02557    1.000
    N1996    N        0.30194    0.83918    0.09638    1.000
    Si1997   Si       0.32516    0.81171    0.07138    1.000
    N1998    N        0.29654    0.78129    0.05915    1.000
    N1999    N        0.33475    0.83306    0.03712    1.000
    Si2000   Si       0.32626    0.87021    0.11810    1.000
    N2001    N        0.32135    0.97434    0.02292    1.000
    Si2002   Si       0.32448    0.98658    0.06757    1.000
    N2003    N        0.30173    0.96089    0.09231    1.000
    N2004    N        0.32355    0.89641    0.00864    1.000
    N2005    N        0.29278    0.89887    0.11591    1.000
    Si2006   Si       0.31114    0.93606    0.99805    1.000
    Si2007   Si       0.29954    0.00635    0.00454    1.000
    N2008    N        0.32658    0.81167    0.21914    1.000
    Si2009   Si       0.28712    0.81207    0.23703    1.000
    N2010    N        0.34366    0.85183    0.15351    1.000
    Si2011   Si       0.34497    0.81887    0.18181    1.000
    N2012    N        0.32589    0.93907    0.16255    1.000
    Si2013   Si       0.30460    0.95217    0.20012    1.000
    Si2014   Si       0.29454    0.94036    0.12979    1.000
    N2015    N        0.28691    0.99216    0.20402    1.000
    N2016    N        0.30292    0.78286    0.33260    1.000
    N2017    N        0.32348    0.83618    0.28183    1.000
    Si2018   Si       0.29649    0.82446    0.31457    1.000
    N2019    N        0.31416    0.84124    0.35194    1.000
    Si2020   Si       0.32462    0.80097    0.36593    1.000
    Si2021   Si       0.34090    0.87662    0.28864    1.000
    Si2022   Si       0.31227    0.98887    0.31401    1.000
    N2023    N        0.31533    0.90689    0.27093    1.000
    N2024    N        0.30668    0.94788    0.33015    1.000
    N2025    N        0.31216    0.98023    0.27160    1.000
    Si2026   Si       0.33784    0.94448    0.26467    1.000
    Si2027   Si       0.33738    0.77182    0.42336    1.000
    N2028    N        0.30405    0.79177    0.40387    1.000
    Si2029   Si       0.29059    0.86963    0.37767    1.000
    N2030    N        0.34303    0.87179    0.45711    1.000
    Si2031   Si       0.32005    0.86939    0.49358    1.000
    N2032    N        0.31696    0.99833    0.38330    1.000
    N2033    N        0.32539    0.88750    0.39302    1.000
    N2034    N        0.33372    0.00790    0.44828    1.000
    N2035    N        0.32585    0.94076    0.43244    1.000
    Si2036   Si       0.31744    0.97034    0.46291    1.000
    Si2037   Si       0.31532    0.95304    0.39306    1.000
    N2038    N        0.29925    0.84179    0.55213    1.000
    Si2039   Si       0.30704    0.80597    0.52710    1.000
    Si2040   Si       0.32379    0.85263    0.58633    1.000
    N2041    N        0.31553    0.76577    0.53852    1.000
    N2042    N        0.33061    0.82629    0.49735    1.000
    N2043    N        0.29513    0.84947    0.61819    1.000
    N2044    N        0.32418    0.90410    0.51968    1.000
    Si2045   Si       0.30636    0.94334    0.51489    1.000
    Si2046   Si       0.32514    0.97562    0.57370    1.000
    N2047    N        0.32703    0.89546    0.58799    1.000
    N2048    N        0.29237    0.95501    0.55347    1.000
    N2049    N        0.32022    0.96230    0.61817    1.000
    Si2050   Si       0.30497    0.92133    0.61612    1.000
    Si2051   Si       0.31240    0.76007    0.65743    1.000
    Si2052   Si       0.30403    0.86138    0.65933    1.000
    Si2053   Si       0.29505    0.86610    0.73099    1.000
    N2054    N        0.30871    0.79430    0.74001    1.000
    N2055    N        0.33660    0.85627    0.73799    1.000
    N2056    N        0.28164    0.90750    0.72162    1.000
    Si2057   Si       0.31077    0.92575    0.69385    1.000
    N2058    N        0.31393    0.96965    0.68715    1.000
    Si2059   Si       0.29578    0.99063    0.71922    1.000
    Si2060   Si       0.33742    0.98378    0.65155    1.000
    N2061    N        0.30273    0.90487    0.65626    1.000
    Si2062   Si       0.32343    0.79488    0.83391    1.000
    N2063    N        0.29319    0.81815    0.85590    1.000
    Si2064   Si       0.28406    0.86229    0.85872    1.000
    N2065    N        0.31102    0.89265    0.84548    1.000
    Si2066   Si       0.30746    0.92298    0.81508    1.000
    Si2067   Si       0.31237    0.99703    0.82629    1.000
    N2068    N        0.29377    0.95841    0.83737    1.000
    N2069    N        0.30269    0.96322    0.75241    1.000
    Si2070   Si       0.34325    0.96579    0.76724    1.000
    N2071    N        0.30579    0.77063    0.96630    1.000
    Si2072   Si       0.29846    0.81437    0.96657    1.000
    N2073    N        0.33791    0.83553    0.96750    1.000
    N2074    N        0.30199    0.75984    0.89793    1.000
    N2075    N        0.29230    0.97950    0.90085    1.000
    Si2076   Si       0.33732    0.98207    0.89618    1.000
    N2077    N        0.35668    0.06878    0.03030    1.000
    Si2078   Si       0.37689    0.08206    0.06607    1.000
    N2079    N        0.39466    0.05470    0.09563    1.000
    Si2080   Si       0.36356    0.03323    0.11647    1.000
    Si2081   Si       0.38482    0.07370    0.99412    1.000
    N2082    N        0.38707    0.11790    0.99599    1.000
    Si2083   Si       0.34351    0.21859    0.00842    1.000
    Si2084   Si       0.35645    0.23962    0.08174    1.000
    N2085    N        0.37071    0.22493    0.04267    1.000
    N2086    N        0.37988    0.22527    0.11474    1.000
    N2087    N        0.34927    0.16436    0.10661    1.000
    Si2088   Si       0.38608    0.18148    0.12129    1.000
    Si2089   Si       0.35144    0.11990    0.22848    1.000
    N2090    N        0.35202    0.04950    0.21871    1.000
    Si2091   Si       0.37109    0.06730    0.18437    1.000
    N2092    N        0.37164    0.11083    0.18962    1.000
    N2093    N        0.34806    0.05754    0.14936    1.000
    N2094    N        0.34923    0.16414    0.22734    1.000
    N2095    N        0.38621    0.17328    0.16269    1.000
    Si2096   Si       0.36660    0.19046    0.19838    1.000
    N2097    N        0.36960    0.09788    0.33093    1.000
    Si2098   Si       0.36681    0.05223    0.32492    1.000
    Si2099   Si       0.37530    0.12312    0.29729    1.000
    N2100    N        0.38412    0.10998    0.25500    1.000
    Si2101   Si       0.37535    0.03893    0.25544    1.000
    N2102    N        0.36725    0.04315    0.36851    1.000
    Si2103   Si       0.37112    0.12045    0.36648    1.000
    N2104    N        0.40309    0.03351    0.31011    1.000
    N2105    N        0.36547    0.20047    0.29445    1.000
    N2106    N        0.36957    0.16253    0.34901    1.000
    Si2107   Si       0.34895    0.23781    0.31127    1.000
    Si2108   Si       0.39597    0.18092    0.31887    1.000
    N2109    N        0.39097    0.04603    0.43488    1.000
    Si2110   Si       0.39149    0.06135    0.47560    1.000
    Si2111   Si       0.40090    0.05796    0.39432    1.000
    N2112    N        0.40035    0.10141    0.39448    1.000
    Si2113   Si       0.40205    0.18446    0.46508    1.000
    N2114    N        0.36823    0.20458    0.48397    1.000
    N2115    N        0.39692    0.22837    0.38225    1.000
    N2116    N        0.38880    0.15734    0.43406    1.000
    Si2117   Si       0.35274    0.22959    0.38583    1.000
    Si2118   Si       0.34609    0.15601    0.42258    1.000
    N2119    N        0.37174    0.07276    0.59718    1.000
    N2120    N        0.38483    0.10551    0.53354    1.000
    Si2121   Si       0.36012    0.03257    0.60000    1.000
    Si2122   Si       0.35012    0.10829    0.61637    1.000
    Si2123   Si       0.34280    0.11605    0.54056    1.000
    N2124    N        0.35607    0.04837    0.49777    1.000
    N2125    N        0.34790    0.13334    0.58136    1.000
    N2126    N        0.37713    0.19119    0.58864    1.000
    Si2127   Si       0.39219    0.23274    0.59554    1.000
    Si2128   Si       0.34472    0.17251    0.56569    1.000
    Si2129   Si       0.36281    0.24813    0.49948    1.000
    Si2130   Si       0.39961    0.15337    0.60162    1.000
    N2131    N        0.33966    0.15732    0.52493    1.000
    N2132    N        0.34823    0.11415    0.73836    1.000
    Si2133   Si       0.36617    0.07773    0.71876    1.000
    N2134    N        0.38270    0.13050    0.63823    1.000
    Si2135   Si       0.40202    0.01152    0.73908    1.000
    N2136    N        0.38225    0.23808    0.63957    1.000
    Si2137   Si       0.35488    0.15632    0.72177    1.000
    N2138    N        0.39642    0.15812    0.70725    1.000
    N2139    N        0.34089    0.19419    0.73961    1.000
    N2140    N        0.39095    0.10621    0.79132    1.000
    Si2141   Si       0.34857    0.10903    0.78098    1.000
    N2142    N        0.39272    0.04540    0.82343    1.000
    N2143    N        0.37917    0.05023    0.75128    1.000
    N2144    N        0.38293    0.21969    0.79406    1.000
    N2145    N        0.38603    0.16495    0.83203    1.000
    Si2146   Si       0.35413    0.24018    0.82327    1.000
    Si2147   Si       0.37064    0.22452    0.75281    1.000
    Si2148   Si       0.34272    0.16537    0.83565    1.000
    N2149    N        0.37848    0.26025    0.85269    1.000
    N2150    N        0.37174    0.07047    0.95244    1.000
    N2151    N        0.36683    0.07062    0.88152    1.000
    Si2152   Si       0.36860    0.09866    0.91845    1.000
    Si2153   Si       0.34332    0.03918    0.94677    1.000
    Si2154   Si       0.35227    0.13853    0.98250    1.000
    Si2155   Si       0.36908    0.22514    0.93302    1.000
    N2156    N        0.36344    0.14838    0.94001    1.000
    N2157    N        0.37128    0.23202    0.97607    1.000
    Si2158   Si       0.36449    0.31105    0.05025    1.000
    N2159    N        0.36904    0.29544    0.00988    1.000
    N2160    N        0.34744    0.28276    0.07914    1.000
    N2161    N        0.40108    0.32710    0.06330    1.000
    N2162    N        0.38232    0.38959    0.09909    1.000
    Si2163   Si       0.34426    0.48817    0.00840    1.000
    Si2164   Si       0.34745    0.41104    0.08520    1.000
    N2165    N        0.35271    0.42363    0.04321    1.000
    N2166    N        0.38175    0.48758    0.09012    1.000
    N2167    N        0.38498    0.48056    0.02429    1.000
    Si2168   Si       0.39248    0.43971    0.02889    1.000
    N2169    N        0.39165    0.33847    0.13029    1.000
    Si2170   Si       0.38892    0.34711    0.22910    1.000
    N2171    N        0.37816    0.27242    0.16538    1.000
    Si2172   Si       0.37639    0.37911    0.14025    1.000
    N2173    N        0.34988    0.36407    0.21887    1.000
    Si2174   Si       0.36021    0.47683    0.19542    1.000
    N2175    N        0.40302    0.40283    0.16492    1.000
    N2176    N        0.38205    0.47530    0.15776    1.000
    N2177    N        0.38001    0.48514    0.23663    1.000
    Si2178   Si       0.35702    0.47743    0.12463    1.000
    N2179    N        0.35987    0.32698    0.30923    1.000
    Si2180   Si       0.35313    0.36566    0.32655    1.000
    Si2181   Si       0.39298    0.30595    0.32700    1.000
    N2182    N        0.38224    0.30904    0.24961    1.000
    N2183    N        0.38180    0.26368    0.32539    1.000
    Si2184   Si       0.34529    0.30445    0.27349    1.000
    N2185    N        0.35807    0.37885    0.36899    1.000
    N2186    N        0.38678    0.39056    0.31347    1.000
    Si2187   Si       0.39250    0.41049    0.27667    1.000
    Si2188   Si       0.38503    0.41232    0.35577    1.000
    N2189    N        0.35321    0.42631    0.26277    1.000
    Si2190   Si       0.35894    0.48348    0.33908    1.000
    N2191    N        0.35379    0.44086    0.33559    1.000
    Si2192   Si       0.34656    0.47119    0.26477    1.000
    Si2193   Si       0.35342    0.34981    0.45942    1.000
    N2194    N        0.38387    0.33203    0.48438    1.000
    N2195    N        0.38995    0.27212    0.43911    1.000
    N2196    N        0.34575    0.32600    0.42525    1.000
    Si2197   Si       0.34859    0.28367    0.43423    1.000
    Si2198   Si       0.38942    0.40362    0.42378    1.000
    N2199    N        0.35421    0.39055    0.44562    1.000
    N2200    N        0.38196    0.43571    0.39407    1.000
    Si2201   Si       0.36174    0.47103    0.40909    1.000
    N2202    N        0.39646    0.49089    0.43199    1.000
    N2203    N        0.36071    0.36823    0.53805    1.000
    Si2204   Si       0.36607    0.36089    0.58186    1.000
    N2205    N        0.35882    0.32210    0.59581    1.000
    N2206    N        0.39057    0.26759    0.56831    1.000
    Si2207   Si       0.34980    0.28217    0.56381    1.000
    Si2208   Si       0.39877    0.35423    0.51840    1.000
    Si2209   Si       0.35690    0.46283    0.56944    1.000
    N2210    N        0.38622    0.43343    0.55793    1.000
    Si2211   Si       0.37228    0.41062    0.52541    1.000
    N2212    N        0.35699    0.47502    0.61080    1.000
    N2213    N        0.37046    0.50107    0.55136    1.000
    N2214    N        0.37199    0.32442    0.70323    1.000
    N2215    N        0.38810    0.37141    0.65379    1.000
    Si2216   Si       0.37853    0.30253    0.74071    1.000
    Si2217   Si       0.34618    0.38036    0.64374    1.000
    Si2218   Si       0.39764    0.35939    0.69632    1.000
    Si2219   Si       0.38855    0.46839    0.63764    1.000
    N2220    N        0.39326    0.44966    0.67730    1.000
    N2221    N        0.37253    0.39362    0.71536    1.000
    N2222    N        0.35371    0.45787    0.72570    1.000
    Si2223   Si       0.39447    0.46787    0.72101    1.000
    Si2224   Si       0.36056    0.42580    0.69325    1.000
    N2225    N        0.39147    0.33176    0.83466    1.000
    N2226    N        0.34715    0.32295    0.76701    1.000
    Si2227   Si       0.36632    0.34177    0.86895    1.000
    N2228    N        0.35619    0.26480    0.74773    1.000
    N2229    N        0.34447    0.50677    0.78883    1.000
    N2230    N        0.35501    0.38731    0.86001    1.000
    N2231    N        0.38666    0.50506    0.85187    1.000
    Si2232   Si       0.36965    0.38319    0.75629    1.000
    N2233    N        0.38799    0.38501    0.79638    1.000
    N2234    N        0.35151    0.44539    0.82660    1.000
    Si2235   Si       0.37948    0.41085    0.83484    1.000
    Si2236   Si       0.34914    0.27650    0.88263    1.000
    N2237    N        0.38207    0.35325    0.97395    1.000
    N2238    N        0.36903    0.26474    0.91900    1.000
    Si2239   Si       0.39290    0.26736    0.99076    1.000
    N2240    N        0.39497    0.32357    0.89619    1.000
    Si2241   Si       0.34924    0.33261    0.99370    1.000
    N2242    N        0.34386    0.47563    0.89474    1.000
    N2243    N        0.35225    0.49286    0.96534    1.000
    Si2244   Si       0.37629    0.39767    0.96822    1.000
    N2245    N        0.37415    0.43211    0.94023    1.000
    Si2246   Si       0.37939    0.59270    0.04953    1.000
    N2247    N        0.39387    0.55147    0.05536    1.000
    N2248    N        0.39273    0.60851    0.01191    1.000
    Si2249   Si       0.37326    0.51173    0.05482    1.000
    Si2250   Si       0.39571    0.71735    0.04655    1.000
    Si2251   Si       0.38100    0.65979    0.07661    1.000
    N2252    N        0.35210    0.72175    0.05420    1.000
    N2253    N        0.39414    0.67406    0.03514    1.000
    N2254    N        0.33882    0.65705    0.06626    1.000
    N2255    N        0.37738    0.61768    0.17330    1.000
    N2256    N        0.36877    0.55179    0.14732    1.000
    Si2257   Si       0.39027    0.57600    0.17189    1.000
    Si2258   Si       0.40103    0.52550    0.23921    1.000
    N2259    N        0.37578    0.62408    0.24641    1.000
    N2260    N        0.40014    0.56257    0.21347    1.000
    N2261    N        0.39968    0.75833    0.20256    1.000
    N2262    N        0.37606    0.66420    0.12114    1.000
    Si2263   Si       0.39716    0.69955    0.12728    1.000
    N2264    N        0.38006    0.68138    0.20777    1.000
    Si2265   Si       0.39232    0.63981    0.20779    1.000
    Si2266   Si       0.35125    0.63934    0.14505    1.000
    N2267    N        0.37067    0.72820    0.14437    1.000
    N2268    N        0.37894    0.54955    0.26912    1.000
    Si2269   Si       0.37281    0.58417    0.36147    1.000
    Si2270   Si       0.36433    0.53386    0.30512    1.000
    N2271    N        0.35139    0.56811    0.32722    1.000
    Si2272   Si       0.39408    0.58534    0.25294    1.000
    N2273    N        0.36888    0.62903    0.36557    1.000
    N2274    N        0.39314    0.51146    0.33287    1.000
    N2275    N        0.36559    0.73126    0.32621    1.000
    N2276    N        0.35927    0.67333    0.29614    1.000
    Si2277   Si       0.37923    0.75118    0.28785    1.000
    Si2278   Si       0.34412    0.64469    0.26686    1.000
    N2279    N        0.39555    0.72030    0.26382    1.000
    Si2280   Si       0.39916    0.68609    0.28847    1.000
    N2281    N        0.38219    0.56218    0.45570    1.000
    Si2282   Si       0.38990    0.51926    0.46669    1.000
    Si2283   Si       0.39385    0.60136    0.46934    1.000
    N2284    N        0.35296    0.57045    0.39565    1.000
    N2285    N        0.38128    0.62574    0.43460    1.000
    N2286    N        0.36409    0.62245    0.49382    1.000
    N2287    N        0.35247    0.50882    0.48718    1.000
    Si2288   Si       0.39507    0.64432    0.39823    1.000
    N2289    N        0.34990    0.73645    0.39992    1.000
    Si2290   Si       0.34206    0.63414    0.45347    1.000
    Si2291   Si       0.38897    0.72597    0.40999    1.000
    Si2292   Si       0.37519    0.75234    0.48042    1.000
    N2293    N        0.39981    0.72831    0.45336    1.000
    N2294    N        0.37698    0.60637    0.56408    1.000
    Si2295   Si       0.37287    0.56432    0.56968    1.000
    Si2296   Si       0.34931    0.61087    0.53221    1.000
    N2297    N        0.35373    0.54992    0.60784    1.000
    N2298    N        0.36814    0.72406    0.51232    1.000
    N2299    N        0.36201    0.66576    0.54610    1.000
    N2300    N        0.37401    0.75109    0.57540    1.000
    Si2301   Si       0.39305    0.64680    0.56962    1.000
    N2302    N        0.39254    0.65714    0.61164    1.000
    Si2303   Si       0.36992    0.67972    0.50495    1.000
    Si2304   Si       0.34527    0.73540    0.54792    1.000
    Si2305   Si       0.36157    0.75448    0.61764    1.000
    N2306    N        0.37005    0.61868    0.71662    1.000
    Si2307   Si       0.37670    0.52170    0.67922    1.000
    N2308    N        0.38288    0.56298    0.67677    1.000
    Si2309   Si       0.37505    0.57657    0.63656    1.000
    N2310    N        0.35148    0.61073    0.64156    1.000
    N2311    N        0.39601    0.51016    0.71665    1.000
    Si2312   Si       0.34825    0.65034    0.62975    1.000
    N2313    N        0.39190    0.71221    0.70479    1.000
    Si2314   Si       0.39289    0.64383    0.74292    1.000
    N2315    N        0.38059    0.72296    0.63894    1.000
    Si2316   Si       0.35826    0.71091    0.67492    1.000
    Si2317   Si       0.37221    0.59253    0.83363    1.000
    Si2318   Si       0.38213    0.58276    0.76655    1.000
    N2319    N        0.38377    0.56064    0.80601    1.000
    Si2320   Si       0.38178    0.51778    0.80955    1.000
    N2321    N        0.39676    0.62180    0.78009    1.000
    N2322    N        0.34261    0.57249    0.75197    1.000
    Si2323   Si       0.38018    0.71087    0.74548    1.000
    N2324    N        0.36409    0.68246    0.82690    1.000
    N2325    N        0.36553    0.67270    0.76089    1.000
    N2326    N        0.35236    0.74280    0.75927    1.000
    N2327    N        0.38956    0.74238    0.82099    1.000
    Si2328   Si       0.34508    0.65416    0.79686    1.000
    Si2329   Si       0.34111    0.71120    0.84695    1.000
    N2330    N        0.35667    0.58562    0.87445    1.000
    Si2331   Si       0.35657    0.51499    0.88248    1.000
    N2332    N        0.37593    0.53657    0.91661    1.000
    N2333    N        0.36283    0.60412    0.94355    1.000
    Si2334   Si       0.37227    0.58688    0.98207    1.000
    Si2335   Si       0.37975    0.57896    0.91060    1.000
    Si2336   Si       0.38560    0.51648    0.95418    1.000
    N2337    N        0.39707    0.55311    0.97588    1.000
    Si2338   Si       0.37163    0.64592    0.93388    1.000
    N2339    N        0.39791    0.66074    0.90057    1.000
    Si2340   Si       0.39527    0.70740    0.96805    1.000
    N2341    N        0.36465    0.72452    0.88315    1.000
    N2342    N        0.39002    0.66427    0.96841    1.000
    N2343    N        0.35470    0.72198    0.96861    1.000
    N2344    N        0.35573    0.78576    0.08334    1.000
    N2345    N        0.38526    0.86646    0.00803    1.000
    Si2346   Si       0.36176    0.83080    0.00332    1.000
    N2347    N        0.37315    0.78764    0.99668    1.000
    Si2348   Si       0.39868    0.78797    0.08761    1.000
    N2349    N        0.35910    0.88658    0.09473    1.000
    Si2350   Si       0.36571    0.96563    0.02504    1.000
    N2351    N        0.36747    0.97380    0.06776    1.000
    N2352    N        0.38394    0.92674    0.02012    1.000
    Si2353   Si       0.39885    0.97150    0.09894    1.000
    Si2354   Si       0.39931    0.89263    0.10551    1.000
    N2355    N        0.39003    0.82052    0.18309    1.000
    Si2356   Si       0.38519    0.86103    0.16530    1.000
    Si2357   Si       0.38612    0.76640    0.16210    1.000
    N2358    N        0.34555    0.78099    0.16313    1.000
    Si2359   Si       0.36222    0.93197    0.18629    1.000
    N2360    N        0.38588    0.89627    0.19061    1.000
    N2361    N        0.34131    0.94515    0.22280    1.000
    Si2362   Si       0.40385    0.97380    0.22721    1.000
    N2363    N        0.38547    0.99920    0.13186    1.000
    N2364    N        0.39445    0.96204    0.18331    1.000
    Si2365   Si       0.34842    0.80980    0.25765    1.000
    N2366    N        0.39070    0.81630    0.25030    1.000
    N2367    N        0.38140    0.88127    0.27198    1.000
    Si2368   Si       0.34925    0.86899    0.36162    1.000
    N2369    N        0.36749    0.79326    0.36582    1.000
    Si2370   Si       0.38797    0.76007    0.34842    1.000
    N2371    N        0.34318    0.76926    0.27421    1.000
    Si2372   Si       0.38872    0.98903    0.30076    1.000
    N2373    N        0.38282    0.99513    0.25726    1.000
    N2374    N        0.37115    0.94393    0.29559    1.000
    N2375    N        0.35439    0.99543    0.32811    1.000
    Si2376   Si       0.34842    0.93469    0.33249    1.000
    N2377    N        0.34821    0.89169    0.32786    1.000
    N2378    N        0.35420    0.94388    0.37303    1.000
    Si2379   Si       0.40110    0.91756    0.28008    1.000
    Si2380   Si       0.35938    0.99928    0.37240    1.000
    N2381    N        0.38683    0.85859    0.37776    1.000
    N2382    N        0.36436    0.80784    0.43018    1.000
    Si2383   Si       0.38768    0.81803    0.39466    1.000
    Si2384   Si       0.36462    0.83076    0.46938    1.000
    N2385    N        0.40404    0.85619    0.48010    1.000
    Si2386   Si       0.37662    0.00528    0.43846    1.000
    N2387    N        0.38646    0.91268    0.42668    1.000
    N2388    N        0.39609    0.91798    0.49574    1.000
    N2389    N        0.39901    0.98465    0.47120    1.000
    N2390    N        0.38930    0.98729    0.40210    1.000
    Si2391   Si       0.34518    0.90217    0.42741    1.000
    Si2392   Si       0.39115    0.94294    0.39562    1.000
    N2393    N        0.36169    0.83443    0.59748    1.000
    Si2394   Si       0.39605    0.84480    0.57016    1.000
    N2395    N        0.37933    0.87880    0.54920    1.000
    N2396    N        0.38738    0.79444    0.48835    1.000
    N2397    N        0.35941    0.94940    0.56380    1.000
    Si2398   Si       0.34961    0.90717    0.55313    1.000
    Si2399   Si       0.39691    0.96965    0.57287    1.000
    Si2400   Si       0.38438    0.95819    0.50146    1.000
    N2401    N        0.39631    0.00553    0.59772    1.000
    N2402    N        0.34170    0.96723    0.50015    1.000
    Si2403   Si       0.36226    0.82542    0.63910    1.000
    N2404    N        0.38143    0.80894    0.72561    1.000
    Si2405   Si       0.35939    0.87224    0.70517    1.000
    N2406    N        0.34490    0.85200    0.66962    1.000
    N2407    N        0.34685    0.78630    0.64429    1.000
    N2408    N        0.35286    0.91640    0.70537    1.000
    N2409    N        0.37832    0.97076    0.66450    1.000
    Si2410   Si       0.37690    0.95162    0.70442    1.000
    N2411    N        0.36960    0.98206    0.73602    1.000
    Si2412   Si       0.34656    0.81549    0.75329    1.000
    N2413    N        0.34484    0.80091    0.79665    1.000
    Si2414   Si       0.35922    0.76108    0.79905    1.000
    N2415    N        0.35184    0.79444    0.86754    1.000
    N2416    N        0.37836    0.90401    0.84818    1.000
    Si2417   Si       0.38325    0.93177    0.81551    1.000
    N2418    N        0.39594    0.97133    0.83304    1.000
    N2419    N        0.34528    0.93255    0.79531    1.000
    Si2420   Si       0.34343    0.90112    0.87252    1.000
    Si2421   Si       0.37357    0.00676    0.82631    1.000
    N2422    N        0.34409    0.00238    0.79523    1.000
    N2423    N        0.34097    0.86234    0.89292    1.000
    Si2424   Si       0.35082    0.76610    0.96942    1.000
    Si2425   Si       0.37042    0.83152    0.88084    1.000
    N2426    N        0.36510    0.77729    0.93028    1.000
    Si2427   Si       0.35129    0.85754    0.93439    1.000
    N2428    N        0.38912    0.83414    0.92072    1.000
    Si2429   Si       0.34629    0.76055    0.89596    1.000
    N2430    N        0.37515    0.89006    0.94788    1.000
    Si2431   Si       0.36842    0.93064    0.93436    1.000
    Si2432   Si       0.36203    0.90165    0.99004    1.000
    N2433    N        0.34832    0.93794    0.89761    1.000
    N2434    N        0.36038    0.00000    0.93088    1.000
    Si2435   Si       0.39409    0.98599    0.95345    1.000
    N2436    N        0.38686    0.99157    0.99840    1.000
    N2437    N        0.34413    0.93998    0.97020    1.000
    N2438    N        0.41799    0.05186    0.01378    1.000
    Si2439   Si       0.42846    0.12479    0.09729    1.000
    N2440    N        0.45375    0.11200    0.01228    1.000
    N2441    N        0.40479    0.11603    0.06249    1.000
    Si2442   Si       0.45446    0.07108    0.99939    1.000
    Si2443   Si       0.42543    0.00962    0.00082    1.000
    Si2444   Si       0.41649    0.13431    0.02376    1.000
    Si2445   Si       0.41197    0.21436    0.03434    1.000
    N2446    N        0.43693    0.22553    0.06940    1.000
    N2447    N        0.42148    0.16546    0.10226    1.000
    Si2448   Si       0.44693    0.20003    0.10363    1.000
    N2449    N        0.42328    0.17780    0.01574    1.000
    N2450    N        0.42716    0.25125    0.01525    1.000
    N2451    N        0.40737    0.04724    0.17272    1.000
    Si2452   Si       0.41713    0.06588    0.13067    1.000
    Si2453   Si       0.43752    0.04871    0.20740    1.000
    N2454    N        0.44217    0.09332    0.20730    1.000
    N2455    N        0.41147    0.10782    0.13493    1.000
    Si2456   Si       0.40418    0.13220    0.16785    1.000
    N2457    N        0.41598    0.05469    0.24595    1.000
    Si2458   Si       0.43681    0.21059    0.24466    1.000
    N2459    N        0.40461    0.20236    0.21559    1.000
    N2460    N        0.43543    0.21562    0.14348    1.000
    N2461    N        0.44268    0.15189    0.17920    1.000
    Si2462   Si       0.40704    0.24865    0.14005    1.000
    Si2463   Si       0.43346    0.19435    0.18185    1.000
    Si2464   Si       0.43774    0.01983    0.33044    1.000
    N2465    N        0.45777    0.10463    0.27540    1.000
    Si2466   Si       0.42585    0.09830    0.24784    1.000
    N2467    N        0.43413    0.03781    0.37088    1.000
    N2468    N        0.45882    0.17598    0.26090    1.000
    Si2469   Si       0.45596    0.14458    0.29207    1.000
    N2470    N        0.43717    0.24891    0.26321    1.000
    N2471    N        0.41252    0.14504    0.30159    1.000
    Si2472   Si       0.41580    0.24443    0.34349    1.000
    N2473    N        0.43155    0.20621    0.32524    1.000
    N2474    N        0.40371    0.10185    0.47067    1.000
    Si2475   Si       0.41368    0.11994    0.43131    1.000
    N2476    N        0.45365    0.13155    0.43166    1.000
    N2477    N        0.43099    0.21364    0.44915    1.000
    Si2478   Si       0.41683    0.24308    0.41936    1.000
    N2479    N        0.43168    0.05647    0.56918    1.000
    Si2480   Si       0.43201    0.02945    0.60338    1.000
    N2481    N        0.42347    0.12142    0.58439    1.000
    Si2482   Si       0.41594    0.12059    0.50813    1.000
    N2483    N        0.45252    0.10289    0.52873    1.000
    Si2484   Si       0.45477    0.05935    0.53185    1.000
    N2485    N        0.42610    0.04557    0.50100    1.000
    Si2486   Si       0.40174    0.08824    0.56956    1.000
    N2487    N        0.43523    0.23839    0.60528    1.000
    N2488    N        0.43374    0.21941    0.54410    1.000
    Si2489   Si       0.44949    0.18720    0.52129    1.000
    N2490    N        0.43356    0.17656    0.61280    1.000
    Si2491   Si       0.45235    0.20350    0.58258    1.000
    N2492    N        0.42141    0.16203    0.49917    1.000
    Si2493   Si       0.40397    0.12818    0.67632    1.000
    Si2494   Si       0.42985    0.06155    0.68318    1.000
    N2495    N        0.42010    0.04625    0.64217    1.000
    N2496    N        0.41437    0.02398    0.70105    1.000
    N2497    N        0.40056    0.08999    0.69552    1.000
    N2498    N        0.40562    0.22648    0.72838    1.000
    N2499    N        0.43682    0.20541    0.67123    1.000
    Si2500   Si       0.45559    0.17271    0.64808    1.000
    N2501    N        0.44565    0.13684    0.66907    1.000
    Si2502   Si       0.42282    0.19102    0.71066    1.000
    Si2503   Si       0.42563    0.23891    0.64911    1.000
    N2504    N        0.42855    0.10276    0.84535    1.000
    N2505    N        0.44623    0.05577    0.77942    1.000
    Si2506   Si       0.40389    0.06865    0.85961    1.000
    Si2507   Si       0.40571    0.06480    0.78629    1.000
    N2508    N        0.45447    0.00796    0.83423    1.000
    Si2509   Si       0.45803    0.01661    0.79178    1.000
    Si2510   Si       0.41231    0.13200    0.81904    1.000
    N2511    N        0.43629    0.16208    0.79354    1.000
    N2512    N        0.43613    0.22008    0.83946    1.000
    Si2513   Si       0.41198    0.19517    0.81449    1.000
    Si2514   Si       0.42190    0.25918    0.85629    1.000
    Si2515   Si       0.44308    0.11450    0.93619    1.000
    N2516    N        0.42913    0.04395    0.88742    1.000
    Si2517   Si       0.44841    0.04115    0.93006    1.000
    N2518    N        0.44525    0.07671    0.95672    1.000
    N2519    N        0.40866    0.11567    0.91203    1.000
    N2520    N        0.43059    0.01119    0.95641    1.000
    Si2521   Si       0.44337    0.22275    0.91542    1.000
    N2522    N        0.43609    0.15533    0.95108    1.000
    N2523    N        0.44762    0.16249    0.87520    1.000
    Si2524   Si       0.44855    0.18461    0.97921    1.000
    N2525    N        0.40338    0.20423    0.91687    1.000
    Si2526   Si       0.40291    0.16076    0.92264    1.000
    N2527    N        0.45243    0.22457    0.95766    1.000
    Si2528   Si       0.44239    0.33016    0.05164    1.000
    N2529    N        0.44943    0.36451    0.07754    1.000
    N2530    N        0.44744    0.32986    0.00896    1.000
    Si2531   Si       0.40901    0.35599    0.09508    1.000
    N2532    N        0.42262    0.43659    0.05999    1.000
    Si2533   Si       0.42159    0.47082    0.08670    1.000
    N2534    N        0.44850    0.50184    0.07216    1.000
    Si2535   Si       0.45431    0.40649    0.06076    1.000
    N2536    N        0.43216    0.28305    0.13902    1.000
    Si2537   Si       0.45178    0.33655    0.20203    1.000
    N2538    N        0.41055    0.33293    0.19286    1.000
    N2539    N        0.45556    0.37844    0.20632    1.000
    N2540    N        0.45407    0.31280    0.24024    1.000
    N2541    N        0.40336    0.38556    0.24353    1.000
    Si2542   Si       0.40204    0.30761    0.15890    1.000
    N2543    N        0.43881    0.45233    0.12347    1.000
    Si2544   Si       0.42068    0.46517    0.24000    1.000
    Si2545   Si       0.42014    0.40234    0.20477    1.000
    N2546    N        0.43064    0.44612    0.20127    1.000
    Si2547   Si       0.41280    0.44577    0.15859    1.000
    Si2548   Si       0.42105    0.29142    0.26234    1.000
    N2549    N        0.42595    0.31332    0.30043    1.000
    N2550    N        0.44821    0.27086    0.34616    1.000
    N2551    N        0.40544    0.32586    0.36243    1.000
    N2552    N        0.42282    0.44288    0.27446    1.000
    N2553    N        0.42527    0.39503    0.36650    1.000
    Si2554   Si       0.45884    0.41931    0.35627    1.000
    N2555    N        0.43840    0.50602    0.24933    1.000
    Si2556   Si       0.42311    0.35545    0.38459    1.000
    N2557    N        0.44325    0.31539    0.45716    1.000
    Si2558   Si       0.44587    0.35422    0.44382    1.000
    Si2559   Si       0.40716    0.29687    0.47241    1.000
    N2560    N        0.40847    0.36516    0.42553    1.000
    N2561    N        0.45448    0.26342    0.41221    1.000
    Si2562   Si       0.43659    0.40965    0.47821    1.000
    N2563    N        0.44785    0.45642    0.37566    1.000
    N2564    N        0.42061    0.42785    0.44235    1.000
    Si2565   Si       0.42513    0.46190    0.41748    1.000
    N2566    N        0.42205    0.33095    0.54344    1.000
    Si2567   Si       0.45246    0.32096    0.57413    1.000
    N2568    N        0.43959    0.31985    0.61590    1.000
    Si2569   Si       0.42423    0.26251    0.54128    1.000
    N2570    N        0.40336    0.37773    0.59369    1.000
    N2571    N        0.40158    0.26867    0.50510    1.000
    N2572    N        0.44831    0.48733    0.55581    1.000
    Si2573   Si       0.41711    0.41818    0.58606    1.000
    N2574    N        0.40747    0.39478    0.50468    1.000
    N2575    N        0.45647    0.41640    0.56591    1.000
    N2576    N        0.45754    0.44148    0.49733    1.000
    N2577    N        0.41959    0.44160    0.62282    1.000
    Si2578   Si       0.42274    0.35965    0.62869    1.000
    N2579    N        0.43938    0.34555    0.67784    1.000
    N2580    N        0.43635    0.27263    0.67386    1.000
    Si2581   Si       0.45238    0.30910    0.65697    1.000
    N2582    N        0.42240    0.29649    0.73859    1.000
    N2583    N        0.41824    0.36362    0.73955    1.000
    Si2584   Si       0.43189    0.25997    0.71627    1.000
    N2585    N        0.46245    0.38354    0.63066    1.000
    Si2586   Si       0.43567    0.44340    0.66559    1.000
    Si2587   Si       0.43583    0.40508    0.73440    1.000
    N2588    N        0.44555    0.41044    0.69195    1.000
    N2589    N        0.42202    0.44473    0.74569    1.000
    N2590    N        0.44030    0.36753    0.84563    1.000
    N2591    N        0.44860    0.29440    0.84648    1.000
    Si2592   Si       0.41757    0.35690    0.80921    1.000
    N2593    N        0.44811    0.33381    0.79007    1.000
    Si2594   Si       0.42660    0.33048    0.86491    1.000
    Si2595   Si       0.44729    0.33281    0.74618    1.000
    N2596    N        0.45692    0.50780    0.74872    1.000
    N2597    N        0.41823    0.43241    0.84073    1.000
    N2598    N        0.41145    0.48873    0.79593    1.000
    Si2599   Si       0.41893    0.47747    0.83910    1.000
    Si2600   Si       0.44304    0.47328    0.77164    1.000
    Si2601   Si       0.45371    0.40961    0.84753    1.000
    N2602    N        0.46180    0.48863    0.84245    1.000
    Si2603   Si       0.42035    0.33328    0.97298    1.000
    N2604    N        0.44720    0.36427    0.95589    1.000
    N2605    N        0.42017    0.28888    0.96272    1.000
    N2606    N        0.43531    0.26537    0.90022    1.000
    Si2607   Si       0.40470    0.28970    0.92118    1.000
    Si2608   Si       0.45262    0.26331    0.97909    1.000
    N2609    N        0.40660    0.41838    0.99357    1.000
    Si2610   Si       0.41244    0.44806    0.95454    1.000
    N2611    N        0.45309    0.43347    0.95317    1.000
    N2612    N        0.41975    0.49066    0.95280    1.000
    Si2613   Si       0.44792    0.40090    0.98073    1.000
    Si2614   Si       0.43722    0.54314    0.06067    1.000
    Si2615   Si       0.44305    0.61646    0.08212    1.000
    N2616    N        0.44943    0.57429    0.08950    1.000
    N2617    N        0.45059    0.54250    0.01936    1.000
    N2618    N        0.40042    0.62056    0.07490    1.000
    N2619    N        0.41249    0.70303    0.08679    1.000
    Si2620   Si       0.41272    0.65011    0.00397    1.000
    Si2621   Si       0.45317    0.70869    0.10310    1.000
    N2622    N        0.41471    0.72827    0.00238    1.000
    Si2623   Si       0.45572    0.71054    0.00660    1.000
    N2624    N        0.45361    0.66816    0.99665    1.000
    Si2625   Si       0.44126    0.58704    0.20861    1.000
    N2626    N        0.43249    0.58098    0.16098    1.000
    N2627    N        0.43333    0.62922    0.20914    1.000
    N2628    N        0.46240    0.62965    0.11962    1.000
    Si2629   Si       0.40482    0.71631    0.22012    1.000
    Si2630   Si       0.45195    0.66110    0.23088    1.000
    N2631    N        0.43705    0.70116    0.14380    1.000
    N2632    N        0.44470    0.70102    0.21348    1.000
    Si2633   Si       0.43076    0.53299    0.34747    1.000
    N2634    N        0.43595    0.58634    0.26014    1.000
    N2635    N        0.44965    0.61644    0.32589    1.000
    N2636    N        0.45379    0.54508    0.31183    1.000
    N2637    N        0.41546    0.57209    0.36362    1.000
    Si2638   Si       0.44746    0.60231    0.36650    1.000
    N2639    N        0.41928    0.68341    0.32677    1.000
    N2640    N        0.43217    0.66167    0.27030    1.000
    Si2641   Si       0.42740    0.70176    0.36568    1.000
    Si2642   Si       0.45040    0.65667    0.31109    1.000
    N2643    N        0.43305    0.60927    0.48423    1.000
    N2644    N        0.45585    0.54974    0.44541    1.000
    N2645    N        0.42152    0.51364    0.49758    1.000
    N2646    N        0.40087    0.68593    0.39722    1.000
    N2647    N        0.43659    0.63577    0.39062    1.000
    N2648    N        0.41751    0.74400    0.37497    1.000
    Si2649   Si       0.43200    0.70343    0.46818    1.000
    N2650    N        0.45723    0.73532    0.47999    1.000
    N2651    N        0.46116    0.67744    0.44587    1.000
    Si2652   Si       0.43942    0.56551    0.59236    1.000
    N2653    N        0.41313    0.54773    0.56312    1.000
    N2654    N        0.41314    0.58855    0.61756    1.000
    N2655    N        0.45711    0.53245    0.61374    1.000
    Si2656   Si       0.41295    0.51100    0.54208    1.000
    N2657    N        0.43434    0.64623    0.55265    1.000
    Si2658   Si       0.44079    0.64340    0.50996    1.000
    N2659    N        0.43516    0.71474    0.59380    1.000
    Si2660   Si       0.41620    0.74800    0.57640    1.000
    N2661    N        0.41218    0.67474    0.49564    1.000
    N2662    N        0.46126    0.64211    0.61761    1.000
    N2663    N        0.40537    0.50710    0.64836    1.000
    N2664    N        0.45438    0.54426    0.69010    1.000
    N2665    N        0.41163    0.57171    0.73481    1.000
    N2666    N        0.42430    0.61923    0.67260    1.000
    Si2667   Si       0.43032    0.53336    0.72525    1.000
    Si2668   Si       0.44772    0.51844    0.65478    1.000
    Si2669   Si       0.42298    0.62977    0.63128    1.000
    Si2670   Si       0.40298    0.59286    0.69946    1.000
    N2671    N        0.43358    0.64899    0.73110    1.000
    N2672    N        0.43197    0.68451    0.66161    1.000
    Si2673   Si       0.44531    0.65092    0.69027    1.000
    Si2674   Si       0.41060    0.69623    0.62434    1.000
    Si2675   Si       0.42964    0.71789    0.68848    1.000
    N2676    N        0.41104    0.61307    0.84269    1.000
    Si2677   Si       0.42943    0.62987    0.80855    1.000
    N2678    N        0.43137    0.67121    0.81723    1.000
    N2679    N        0.41723    0.71183    0.77039    1.000
    N2680    N        0.43280    0.71511    0.86329    1.000
    Si2681   Si       0.42158    0.75336    0.84748    1.000
    Si2682   Si       0.40071    0.70010    0.80834    1.000
    Si2683   Si       0.45832    0.68314    0.85013    1.000
    Si2684   Si       0.46115    0.71218    0.76201    1.000
    Si2685   Si       0.43890    0.56410    0.98272    1.000
    N2686    N        0.42114    0.59020    0.90468    1.000
    Si2687   Si       0.42170    0.62859    0.88334    1.000
    Si2688   Si       0.45957    0.56893    0.90986    1.000
    N2689    N        0.45873    0.64703    0.87611    1.000
    N2690    N        0.41909    0.71838    0.93290    1.000
    Si2691   Si       0.45342    0.74545    0.94099    1.000
    Si2692   Si       0.40245    0.70320    0.89482    1.000
    N2693    N        0.43549    0.80741    0.01033    1.000
    N2694    N        0.42807    0.81886    0.08200    1.000
    Si2695   Si       0.41118    0.77132    0.01004    1.000
    Si2696   Si       0.44571    0.84140    0.11546    1.000
    Si2697   Si       0.45428    0.81526    0.04769    1.000
    N2698    N        0.40805    0.76256    0.05293    1.000
    N2699    N        0.42594    0.89058    0.07050    1.000
    Si2700   Si       0.41225    0.89421    0.02821    1.000
    N2701    N        0.43593    0.98879    0.08703    1.000
    N2702    N        0.44830    0.90487    0.00842    1.000
    N2703    N        0.45664    0.98003    0.01504    1.000
    N2704    N        0.40660    0.93301    0.12039    1.000
    N2705    N        0.45212    0.80741    0.21583    1.000
    N2706    N        0.43967    0.86979    0.23463    1.000
    N2707    N        0.41191    0.86105    0.13175    1.000
    N2708    N        0.41315    0.77755    0.12986    1.000
    Si2709   Si       0.41007    0.79879    0.21515    1.000
    Si2710   Si       0.45706    0.77541    0.13308    1.000
    N2711    N        0.44797    0.98527    0.15540    1.000
    Si2712   Si       0.40717    0.00226    0.16909    1.000
    N2713    N        0.44807    0.92203    0.18482    1.000
    N2714    N        0.41539    0.93484    0.24245    1.000
    Si2715   Si       0.42607    0.94569    0.15659    1.000
    Si2716   Si       0.42203    0.90175    0.21326    1.000
    N2717    N        0.43055    0.00359    0.21329    1.000
    N2718    N        0.43809    0.83940    0.29961    1.000
    Si2719   Si       0.44362    0.79509    0.30878    1.000
    Si2720   Si       0.41281    0.85115    0.26566    1.000
    N2721    N        0.40640    0.77385    0.31060    1.000
    N2722    N        0.45862    0.86760    0.35951    1.000
    N2723    N        0.42767    0.97615    0.32153    1.000
    N2724    N        0.43555    0.90857    0.30531    1.000
    Si2725   Si       0.44601    0.93938    0.33820    1.000
    N2726    N        0.42305    0.92404    0.37245    1.000
    N2727    N        0.45136    0.80879    0.46296    1.000
    N2728    N        0.43229    0.86800    0.42139    1.000
    N2729    N        0.42842    0.80755    0.39622    1.000
    Si2730   Si       0.45384    0.82954    0.42470    1.000
    Si2731   Si       0.45200    0.77444    0.38233    1.000
    Si2732   Si       0.42401    0.88320    0.38348    1.000
    Si2733   Si       0.41411    0.89485    0.45518    1.000
    N2734    N        0.45072    0.91454    0.46401    1.000
    N2735    N        0.42954    0.85988    0.59472    1.000
    N2736    N        0.42317    0.83508    0.53577    1.000
    N2737    N        0.42620    0.77915    0.60646    1.000
    N2738    N        0.44682    0.76590    0.55066    1.000
    Si2739   Si       0.41049    0.88183    0.51651    1.000
    Si2740   Si       0.42258    0.81880    0.49547    1.000
    N2741    N        0.42021    0.94133    0.59460    1.000
    N2742    N        0.44545    0.89604    0.53894    1.000
    N2743    N        0.41015    0.97701    0.53087    1.000
    Si2744   Si       0.45431    0.92552    0.56990    1.000
    Si2745   Si       0.42720    0.00201    0.49811    1.000
    N2746    N        0.43793    0.75701    0.67126    1.000
    Si2747   Si       0.43541    0.79294    0.64837    1.000
    Si2748   Si       0.41068    0.82711    0.69950    1.000
    N2749    N        0.45403    0.81302    0.69318    1.000
    N2750    N        0.40309    0.82050    0.65677    1.000
    Si2751   Si       0.44909    0.88225    0.62394    1.000
    N2752    N        0.40255    0.86952    0.70502    1.000
    Si2753   Si       0.42869    0.90351    0.69694    1.000
    Si2754   Si       0.40545    0.00812    0.65990    1.000
    Si2755   Si       0.41577    0.94744    0.63839    1.000
    N2756    N        0.42823    0.90989    0.65308    1.000
    N2757    N        0.43852    0.98141    0.64920    1.000
    N2758    N        0.41585    0.93795    0.71663    1.000
    N2759    N        0.44414    0.78319    0.82457    1.000
    Si2760   Si       0.43759    0.81217    0.85827    1.000
    N2761    N        0.40419    0.84067    0.85689    1.000
    Si2762   Si       0.41453    0.88226    0.85940    1.000
    N2763    N        0.44809    0.88681    0.83106    1.000
    Si2764   Si       0.43815    0.96874    0.84208    1.000
    N2765    N        0.43244    0.99286    0.76415    1.000
    Si2766   Si       0.43276    0.95034    0.75417    1.000
    N2767    N        0.41745    0.92632    0.78832    1.000
    Si2768   Si       0.46267    0.91228    0.79992    1.000
    N2769    N        0.44581    0.85686    0.95858    1.000
    Si2770   Si       0.41336    0.86813    0.93330    1.000
    N2771    N        0.41823    0.78092    0.88106    1.000
    N2772    N        0.43390    0.78439    0.94707    1.000
    Si2773   Si       0.45303    0.81562    0.96961    1.000
    Si2774   Si       0.40201    0.79255    0.92040    1.000
    N2775    N        0.42462    0.89274    0.90021    1.000
    N2776    N        0.45107    0.95585    0.88303    1.000
    Si2777   Si       0.43908    0.93055    0.91569    1.000
    N2778    N        0.40712    0.94955    0.93825    1.000
    N2779    N        0.46888    0.11354    0.09615    1.000
    N2780    N        0.48492    0.04049    0.00514    1.000
    Si2781   Si       0.48621    0.08167    0.11896    1.000
    Si2782   Si       0.49189    0.13237    0.01002    1.000
    N2783    N        0.50919    0.13871    0.04880    1.000
    N2784    N        0.48649    0.18366    0.09731    1.000
    N2785    N        0.49786    0.23426    0.04999    1.000
    Si2786   Si       0.49979    0.14383    0.09100    1.000
    Si2787   Si       0.46065    0.25707    0.04580    1.000
    Si2788   Si       0.51346    0.06291    0.18221    1.000
    Si2789   Si       0.46988    0.11960    0.18779    1.000
    N2790    N        0.48023    0.03763    0.19561    1.000
    N2791    N        0.49117    0.09396    0.15958    1.000
    N2792    N        0.45692    0.05115    0.12256    1.000
    N2793    N        0.50091    0.25499    0.24222    1.000
    Si2794   Si       0.48901    0.17719    0.22632    1.000
    Si2795   Si       0.50050    0.23518    0.20413    1.000
    N2796    N        0.50078    0.25100    0.16503    1.000
    N2797    N        0.46449    0.20968    0.20742    1.000
    N2798    N        0.49989    0.13726    0.21432    1.000
    N2799    N        0.47452    0.03296    0.31028    1.000
    N2800    N        0.49661    0.09373    0.33199    1.000
    Si2801   Si       0.48190    0.07452    0.29439    1.000
    Si2802   Si       0.51535    0.02315    0.30370    1.000
    Si2803   Si       0.50589    0.13281    0.35254    1.000
    N2804    N        0.51867    0.05766    0.27435    1.000
    N2805    N        0.48544    0.15788    0.32354    1.000
    N2806    N        0.50015    0.22594    0.30253    1.000
    Si2807   Si       0.47611    0.19979    0.32817    1.000
    Si2808   Si       0.47795    0.25464    0.28059    1.000
    N2809    N        0.48239    0.21547    0.36683    1.000
    N2810    N        0.46243    0.01815    0.43276    1.000
    Si2811   Si       0.46850    0.01892    0.39044    1.000
    N2812    N        0.50100    0.04619    0.38568    1.000
    Si2813   Si       0.49715    0.12932    0.42948    1.000
    N2814    N        0.51839    0.09287    0.43645    1.000
    N2815    N        0.48171    0.19683    0.49540    1.000
    N2816    N        0.51694    0.14318    0.46748    1.000
    Si2817   Si       0.50708    0.19225    0.39463    1.000
    N2818    N        0.50359    0.21210    0.43478    1.000
    N2819    N        0.50202    0.15097    0.39225    1.000
    Si2820   Si       0.47182    0.22134    0.46082    1.000
    Si2821   Si       0.47709    0.25873    0.37524    1.000
    Si2822   Si       0.52111    0.17866    0.49173    1.000
    N2823    N        0.48825    0.03324    0.54077    1.000
    N2824    N        0.50417    0.12356    0.57803    1.000
    N2825    N        0.47596    0.02272    0.61084    1.000
    Si2826   Si       0.50548    0.03218    0.58116    1.000
    Si2827   Si       0.46160    0.12449    0.56564    1.000
    N2828    N        0.49478    0.21646    0.58167    1.000
    N2829    N        0.46784    0.16771    0.55517    1.000
    Si2830   Si       0.51056    0.17250    0.56729    1.000
    Si2831   Si       0.49870    0.25617    0.56617    1.000
    N2832    N        0.50175    0.01317    0.67713    1.000
    Si2833   Si       0.50474    0.05395    0.69677    1.000
    N2834    N        0.50466    0.04862    0.73995    1.000
    N2835    N        0.46997    0.07582    0.68644    1.000
    Si2836   Si       0.47209    0.11815    0.69794    1.000
    N2837    N        0.46303    0.11555    0.74215    1.000
    N2838    N        0.51238    0.13411    0.69002    1.000
    N2839    N        0.46107    0.18456    0.73047    1.000
    N2840    N        0.47402    0.25237    0.72841    1.000
    N2841    N        0.49620    0.18231    0.64333    1.000
    Si2842   Si       0.49429    0.21436    0.73548    1.000
    Si2843   Si       0.47836    0.07674    0.75820    1.000
    N2844    N        0.49507    0.06200    0.85492    1.000
    N2845    N        0.49735    0.12491    0.84803    1.000
    N2846    N        0.50588    0.09350    0.78705    1.000
    Si2847   Si       0.51555    0.09069    0.82878    1.000
    Si2848   Si       0.45993    0.12102    0.86974    1.000
    N2849    N        0.50671    0.18993    0.83340    1.000
    N2850    N        0.50888    0.15873    0.76639    1.000
    Si2851   Si       0.46934    0.19575    0.85742    1.000
    Si2852   Si       0.46607    0.15428    0.76277    1.000
    N2853    N        0.51900    0.22208    0.77279    1.000
    Si2854   Si       0.46677    0.03279    0.86868    1.000
    N2855    N        0.48798    0.03584    0.91018    1.000
    N2856    N        0.47653    0.10471    0.90745    1.000
    Si2857   Si       0.50454    0.07521    0.89656    1.000
    Si2858   Si       0.52058    0.23901    0.89620    1.000
    N2859    N        0.48714    0.17077    0.99116    1.000
    N2860    N        0.48147    0.22025    0.89278    1.000
    Si2861   Si       0.49086    0.37179    0.09520    1.000
    Si2862   Si       0.50813    0.30148    0.07955    1.000
    N2863    N        0.46595    0.29542    0.06565    1.000
    N2864    N        0.48437    0.27676    0.00397    1.000
    N2865    N        0.51971    0.34358    0.07690    1.000
    N2866    N        0.51300    0.35733    0.99591    1.000
    Si2867   Si       0.48782    0.31920    0.99591    1.000
    Si2868   Si       0.49040    0.49377    0.07098    1.000
    N2869    N        0.48687    0.41509    0.09060    1.000
    N2870    N        0.50092    0.47549    0.10815    1.000
    N2871    N        0.46986    0.40266    0.01859    1.000
    N2872    N        0.50714    0.46337    0.04415    1.000
    Si2873   Si       0.51367    0.39699    0.01091    1.000
    N2874    N        0.50935    0.29611    0.12272    1.000
    Si2875   Si       0.51266    0.33053    0.15281    1.000
    N2876    N        0.47703    0.31598    0.17504    1.000
    N2877    N        0.50283    0.36663    0.13603    1.000
    Si2878   Si       0.47490    0.28116    0.14886    1.000
    N2879    N        0.49033    0.48637    0.20417    1.000
    Si2880   Si       0.47922    0.44183    0.12455    1.000
    Si2881   Si       0.48744    0.38687    0.23364    1.000
    N2882    N        0.48234    0.42933    0.24299    1.000
    N2883    N        0.49123    0.43042    0.16614    1.000
    Si2884   Si       0.47557    0.44558    0.20296    1.000
    N2885    N        0.48891    0.29418    0.29583    1.000
    N2886    N        0.48206    0.34778    0.33970    1.000
    N2887    N        0.48643    0.36351    0.27056    1.000
    Si2888   Si       0.48972    0.32134    0.26321    1.000
    Si2889   Si       0.49453    0.37828    0.31101    1.000
    Si2890   Si       0.46114    0.31014    0.32759    1.000
    N2891    N        0.48800    0.48001    0.29029    1.000
    N2892    N        0.47115    0.41483    0.31482    1.000
    Si2893   Si       0.46610    0.44062    0.28153    1.000
    N2894    N        0.50980    0.28419    0.37209    1.000
    Si2895   Si       0.49601    0.36303    0.37702    1.000
    Si2896   Si       0.47286    0.28781    0.44282    1.000
    N2897    N        0.46416    0.34954    0.40321    1.000
    N2898    N        0.47713    0.26227    0.47761    1.000
    N2899    N        0.51573    0.30191    0.43941    1.000
    N2900    N        0.46681    0.38117    0.46887    1.000
    N2901    N        0.49551    0.40730    0.37717    1.000
    N2902    N        0.46463    0.47585    0.43170    1.000
    N2903    N        0.49394    0.49774    0.48752    1.000
    Si2904   Si       0.50636    0.39472    0.48173    1.000
    N2905    N        0.51377    0.43454    0.46217    1.000
    Si2906   Si       0.48138    0.46036    0.46776    1.000
    Si2907   Si       0.47761    0.48543    0.38998    1.000
    N2908    N        0.48540    0.35040    0.57171    1.000
    Si2909   Si       0.49120    0.28518    0.51101    1.000
    N2910    N        0.50788    0.32391    0.51030    1.000
    N2911    N        0.46348    0.28127    0.54787    1.000
    Si2912   Si       0.51809    0.35033    0.54372    1.000
    N2913    N        0.51539    0.28447    0.59194    1.000
    Si2914   Si       0.46514    0.44914    0.53938    1.000
    Si2915   Si       0.47940    0.38884    0.59206    1.000
    N2916    N        0.50900    0.45903    0.53801    1.000
    N2917    N        0.49114    0.47554    0.60882    1.000
    N2918    N        0.51674    0.41150    0.59183    1.000
    Si2919   Si       0.51619    0.49979    0.52493    1.000
    Si2920   Si       0.47578    0.50784    0.58396    1.000
    N2921    N        0.51839    0.38979    0.52329    1.000
    N2922    N        0.48756    0.32314    0.72805    1.000
    N2923    N        0.49716    0.30901    0.65950    1.000
    Si2924   Si       0.51412    0.33238    0.69352    1.000
    N2925    N        0.50756    0.37389    0.68733    1.000
    Si2926   Si       0.46758    0.37946    0.67329    1.000
    Si2927   Si       0.49692    0.28503    0.74518    1.000
    Si2928   Si       0.50598    0.47329    0.67945    1.000
    N2929    N        0.46210    0.47780    0.67126    1.000
    N2930    N        0.51541    0.47077    0.72346    1.000
    N2931    N        0.49138    0.28145    0.78833    1.000
    Si2932   Si       0.47285    0.30814    0.81391    1.000
    N2933    N        0.50914    0.32822    0.83072    1.000
    N2934    N        0.47132    0.39894    0.75665    1.000
    N2935    N        0.48213    0.46045    0.78774    1.000
    Si2936   Si       0.49654    0.41999    0.78456    1.000
    N2937    N        0.49269    0.40188    0.82380    1.000
    Si2938   Si       0.49732    0.49233    0.81518    1.000
    Si2939   Si       0.49870    0.50344    0.74611    1.000
    N2940    N        0.52112    0.49733    0.85083    1.000
    N2941    N        0.51123    0.27772    0.88033    1.000
    N2942    N        0.49588    0.31166    0.95181    1.000
    Si2943   Si       0.47632    0.34493    0.93099    1.000
    Si2944   Si       0.47112    0.28952    0.88724    1.000
    N2945    N        0.51006    0.37312    0.93115    1.000
    N2946    N        0.45924    0.32956    0.89592    1.000
    Si2947   Si       0.48539    0.50363    0.87577    1.000
    Si2948   Si       0.46295    0.50367    0.95029    1.000
    Si2949   Si       0.51544    0.39941    0.89761    1.000
    N2950    N        0.47480    0.48576    0.91265    1.000
    N2951    N        0.48905    0.49615    0.98464    1.000
    N2952    N        0.47325    0.41792    0.88616    1.000
    Si2953   Si       0.48030    0.44336    0.92028    1.000
    Si2954   Si       0.49386    0.53310    0.01034    1.000
    N2955    N        0.51006    0.52750    0.05076    1.000
    N2956    N        0.46388    0.63600    0.05087    1.000
    Si2957   Si       0.48345    0.63686    0.01097    1.000
    Si2958   Si       0.49388    0.74732    0.06208    1.000
    N2959    N        0.49258    0.68599    0.10153    1.000
    Si2960   Si       0.48702    0.67308    0.05885    1.000
    N2961    N        0.47089    0.71155    0.04705    1.000
    N2962    N        0.47213    0.74939    0.10294    1.000
    N2963    N        0.51766    0.65755    0.03470    1.000
    N2964    N        0.50143    0.57419    0.14245    1.000
    Si2965   Si       0.49187    0.52905    0.21726    1.000
    N2966    N        0.47904    0.56807    0.20492    1.000
    Si2967   Si       0.46204    0.58686    0.13047    1.000
    N2968    N        0.49285    0.65235    0.23695    1.000
    N2969    N        0.48817    0.67479    0.17108    1.000
    N2970    N        0.47066    0.75182    0.16927    1.000
    Si2971   Si       0.46463    0.71003    0.17547    1.000
    Si2972   Si       0.49540    0.65430    0.13210    1.000
    N2973    N        0.49839    0.53349    0.25829    1.000
    N2974    N        0.50371    0.59664    0.28385    1.000
    Si2975   Si       0.46477    0.51675    0.28109    1.000
    Si2976   Si       0.46112    0.58745    0.29686    1.000
    Si2977   Si       0.51058    0.63920    0.27408    1.000
    N2978    N        0.49562    0.66249    0.30977    1.000
    Si2979   Si       0.50340    0.69259    0.34239    1.000
    N2980    N        0.51280    0.72814    0.31959    1.000
    N2981    N        0.48240    0.58777    0.38968    1.000
    Si2982   Si       0.47940    0.54860    0.40863    1.000
    N2983    N        0.49759    0.60557    0.45454    1.000
    Si2984   Si       0.50862    0.61037    0.41314    1.000
    Si2985   Si       0.46532    0.58498    0.47069    1.000
    N2986    N        0.46064    0.52366    0.37886    1.000
    N2987    N        0.51990    0.53511    0.41698    1.000
    Si2988   Si       0.46142    0.52471    0.48408    1.000
    N2989    N        0.46950    0.69503    0.37247    1.000
    N2990    N        0.50710    0.65304    0.41293    1.000
    Si2991   Si       0.46715    0.66595    0.40397    1.000
    Si2992   Si       0.49516    0.65267    0.46007    1.000
    Si2993   Si       0.49693    0.56985    0.54274    1.000
    N2994    N        0.50077    0.52643    0.55526    1.000
    N2995    N        0.47315    0.58924    0.57338    1.000
    N2996    N        0.47431    0.56119    0.50677    1.000
    Si2997   Si       0.47033    0.63353    0.57570    1.000
    Si2998   Si       0.47306    0.74905    0.52027    1.000
    N2999    N        0.48267    0.70892    0.53995    1.000
    Si3000   Si       0.47868    0.71528    0.58369    1.000
    N3001    N        0.50871    0.65175    0.56833    1.000
    Si3002   Si       0.50773    0.67495    0.53182    1.000
    N3003    N        0.50396    0.69909    0.61593    1.000
    N3004    N        0.48378    0.65130    0.50493    1.000
    N3005    N        0.50066    0.75380    0.58723    1.000
    N3006    N        0.48291    0.60696    0.72066    1.000
    Si3007   Si       0.48779    0.56789    0.70616    1.000
    Si3008   Si       0.51555    0.62409    0.68220    1.000
    N3009    N        0.51375    0.54301    0.72973    1.000
    N3010    N        0.46218    0.72108    0.71867    1.000
    Si3011   Si       0.49083    0.66441    0.64084    1.000
    N3012    N        0.48792    0.66094    0.68539    1.000
    Si3013   Si       0.49680    0.69087    0.71587    1.000
    Si3014   Si       0.50308    0.60013    0.80687    1.000
    N3015    N        0.50978    0.60565    0.84968    1.000
    N3016    N        0.50477    0.55531    0.81192    1.000
    N3017    N        0.46909    0.61906    0.79006    1.000
    Si3018   Si       0.51549    0.55877    0.85443    1.000
    Si3019   Si       0.47028    0.63645    0.75049    1.000
    N3020    N        0.47854    0.73689    0.79299    1.000
    N3021    N        0.49935    0.69541    0.84454    1.000
    Si3022   Si       0.51025    0.73409    0.82269    1.000
    N3023    N        0.48622    0.67678    0.75608    1.000
    N3024    N        0.49014    0.59949    0.91701    1.000
    Si3025   Si       0.49745    0.62695    0.88490    1.000
    N3026    N        0.48020    0.54668    0.87876    1.000
    Si3027   Si       0.49597    0.58843    0.96035    1.000
    N3028    N        0.46304    0.60073    0.98815    1.000
    N3029    N        0.46230    0.54796    0.94882    1.000
    N3030    N        0.49103    0.74731    0.91885    1.000
    N3031    N        0.47607    0.73584    0.97727    1.000
    N3032    N        0.48855    0.78801    0.04966    1.000
    N3033    N        0.48249    0.85176    0.05241    1.000
    N3034    N        0.47279    0.87788    0.11559    1.000
    Si3035   Si       0.51567    0.82128    0.05207    1.000
    Si3036   Si       0.46991    0.88908    0.07353    1.000
    Si3037   Si       0.49497    0.99668    0.00473    1.000
    N3038    N        0.48398    0.92963    0.06359    1.000
    Si3039   Si       0.50984    0.96343    0.07910    1.000
    N3040    N        0.50161    0.99781    0.10665    1.000
    Si3041   Si       0.47013    0.93904    0.02388    1.000
    N3042    N        0.51526    0.98634    0.04164    1.000
    Si3043   Si       0.46131    0.00634    0.11718    1.000
    Si3044   Si       0.51015    0.76639    0.17839    1.000
    N3045    N        0.47585    0.81369    0.13074    1.000
    Si3046   Si       0.47286    0.84796    0.21749    1.000
    N3047    N        0.50992    0.76533    0.22145    1.000
    N3048    N        0.49300    0.87688    0.19032    1.000
    Si3049   Si       0.48112    0.78999    0.23986    1.000
    Si3050   Si       0.49941    0.88443    0.14713    1.000
    Si3051   Si       0.49032    0.92578    0.19196    1.000
    Si3052   Si       0.46944    0.99414    0.19219    1.000
    N3053    N        0.51381    0.92382    0.15469    1.000
    N3054    N        0.49617    0.96422    0.21004    1.000
    N3055    N        0.50031    0.86880    0.30311    1.000
    Si3056   Si       0.49979    0.76916    0.31353    1.000
    N3057    N        0.47123    0.77675    0.27935    1.000
    N3058    N        0.47081    0.78375    0.34334    1.000
    N3059    N        0.49933    0.83074    0.24578    1.000
    Si3060   Si       0.46003    0.87268    0.31639    1.000
    N3061    N        0.49044    0.92602    0.33912    1.000
    N3062    N        0.49404    0.83930    0.41183    1.000
    Si3063   Si       0.49518    0.87323    0.38192    1.000
    Si3064   Si       0.47394    0.77074    0.46000    1.000
    N3065    N        0.47719    0.76442    0.41568    1.000
    N3066    N        0.46869    0.99227    0.49431    1.000
    N3067    N        0.47909    0.97947    0.37562    1.000
    N3068    N        0.51996    0.90473    0.47379    1.000
    Si3069   Si       0.48922    0.91915    0.44626    1.000
    N3070    N        0.50601    0.95992    0.45041    1.000
    N3071    N        0.49407    0.90978    0.40290    1.000
    Si3072   Si       0.49151    0.99898    0.45882    1.000
    Si3073   Si       0.50305    0.94512    0.37637    1.000
    N3074    N        0.48259    0.82288    0.57840    1.000
    N3075    N        0.49888    0.85746    0.52730    1.000
    Si3076   Si       0.46842    0.78290    0.58817    1.000
    N3077    N        0.50012    0.77838    0.49512    1.000
    Si3078   Si       0.45791    0.85528    0.55516    1.000
    Si3079   Si       0.49708    0.83060    0.61965    1.000
    N3080    N        0.47860    0.90201    0.59838    1.000
    N3081    N        0.47646    0.96155    0.56043    1.000
    Si3082   Si       0.49180    0.99022    0.53358    1.000
    Si3083   Si       0.51025    0.95733    0.58833    1.000
    N3084    N        0.51185    0.83826    0.71976    1.000
    Si3085   Si       0.48000    0.84870    0.68938    1.000
    N3086    N        0.47959    0.85962    0.64651    1.000
    N3087    N        0.47865    0.79344    0.63329    1.000
    N3088    N        0.50786    0.76714    0.69267    1.000
    Si3089   Si       0.46408    0.76982    0.70464    1.000
    Si3090   Si       0.51688    0.78028    0.65307    1.000
    Si3091   Si       0.50361    0.80490    0.74668    1.000
    N3092    N        0.49628    0.94879    0.69759    1.000
    N3093    N        0.46629    0.88569    0.70930    1.000
    Si3094   Si       0.49043    0.91771    0.72516    1.000
    Si3095   Si       0.47925    0.99575    0.64378    1.000
    N3096    N        0.50188    0.96068    0.63007    1.000
    Si3097   Si       0.48957    0.87191    0.84585    1.000
    N3098    N        0.49708    0.81572    0.78955    1.000
    Si3099   Si       0.47059    0.78009    0.79072    1.000
    N3100    N        0.47437    0.83228    0.86596    1.000
    N3101    N        0.50738    0.76725    0.84988    1.000
    Si3102   Si       0.51257    0.80956    0.85898    1.000
    N3103    N        0.46636    0.78186    0.74699    1.000
    N3104    N        0.50140    0.00553    0.78925    1.000
    N3105    N        0.50123    0.88777    0.80590    1.000
    N3106    N        0.47107    0.94836    0.82241    1.000
    Si3107   Si       0.50887    0.96666    0.80858    1.000
    N3108    N        0.47110    0.93088    0.76009    1.000
    Si3109   Si       0.49165    0.94520    0.87031    1.000
    N3110    N        0.51222    0.87260    0.97988    1.000
    N3111    N        0.49276    0.80528    0.97219    1.000
    N3112    N        0.50657    0.93395    0.99807    1.000
    N3113    N        0.49567    0.90408    0.87396    1.000
    N3114    N        0.47074    0.92043    0.94395    1.000
    N3115    N        0.50476    0.98938    0.96282    1.000
    Si3116   Si       0.50732    0.94580    0.95100    1.000
    Si3117   Si       0.47253    0.88913    0.97400    1.000
    N3118    N        0.51285    0.95780    0.90852    1.000
    Si3119   Si       0.55432    0.09545    0.09385    1.000
    N3120    N        0.55437    0.03795    0.02052    1.000
    Si3121   Si       0.54609    0.12471    0.03108    1.000
    N3122    N        0.56854    0.09806    0.05476    1.000
    N3123    N        0.56270    0.01297    0.08493    1.000
    N3124    N        0.52235    0.06716    0.10009    1.000
    N3125    N        0.52198    0.10105    0.00149    1.000
    Si3126   Si       0.53356    0.02587    0.11402    1.000
    Si3127   Si       0.52236    0.05960    0.99753    1.000
    N3128    N        0.53497    0.13172    0.11116    1.000
    N3129    N        0.54950    0.22458    0.00364    1.000
    N3130    N        0.55428    0.19032    0.06479    1.000
    N3131    N        0.56298    0.15449    0.00688    1.000
    Si3132   Si       0.56812    0.19342    0.02475    1.000
    N3133    N        0.53861    0.22704    0.11055    1.000
    Si3134   Si       0.57542    0.20764    0.09913    1.000
    Si3135   Si       0.51679    0.20882    0.07747    1.000
    Si3136   Si       0.54225    0.12645    0.21588    1.000
    N3137    N        0.53823    0.08364    0.21042    1.000
    N3138    N        0.54530    0.01843    0.22136    1.000
    N3139    N        0.53936    0.03968    0.15550    1.000
    Si3140   Si       0.56477    0.01477    0.18235    1.000
    N3141    N        0.52649    0.19884    0.21099    1.000
    Si3142   Si       0.56572    0.21309    0.21970    1.000
    Si3143   Si       0.56912    0.13991    0.13784    1.000
    N3144    N        0.56614    0.13843    0.18168    1.000
    N3145    N        0.54244    0.03729    0.33357    1.000
    N3146    N        0.54696    0.11091    0.36373    1.000
    Si3147   Si       0.52689    0.07039    0.35647    1.000
    Si3148   Si       0.55213    0.05630    0.24433    1.000
    N3149    N        0.56557    0.13381    0.25143    1.000
    N3150    N        0.56656    0.20904    0.26427    1.000
    Si3151   Si       0.54336    0.23085    0.29580    1.000
    N3152    N        0.57047    0.21712    0.32531    1.000
    Si3153   Si       0.56516    0.03120    0.47683    1.000
    Si3154   Si       0.55045    0.11164    0.46532    1.000
    N3155    N        0.56588    0.06035    0.40023    1.000
    N3156    N        0.52667    0.02635    0.45645    1.000
    Si3157   Si       0.52660    0.05371    0.42083    1.000
    Si3158   Si       0.57642    0.10466    0.39369    1.000
    N3159    N        0.57584    0.07325    0.47303    1.000
    N3160    N        0.57784    0.12684    0.43110    1.000
    Si3161   Si       0.54767    0.21531    0.43655    1.000
    N3162    N        0.55710    0.19938    0.47586    1.000
    N3163    N        0.57886    0.13383    0.49622    1.000
    N3164    N        0.56811    0.25305    0.43472    1.000
    N3165    N        0.55016    0.20206    0.39448    1.000
    N3166    N        0.53802    0.06018    0.59453    1.000
    Si3167   Si       0.54081    0.10490    0.59173    1.000
    N3168    N        0.57208    0.11859    0.56339    1.000
    Si3169   Si       0.57798    0.04334    0.60616    1.000
    N3170    N        0.57645    0.01608    0.51550    1.000
    N3171    N        0.54375    0.17990    0.59843    1.000
    N3172    N        0.53377    0.16976    0.53235    1.000
    Si3173   Si       0.57183    0.15050    0.53582    1.000
    Si3174   Si       0.51949    0.20869    0.61860    1.000
    N3175    N        0.52314    0.26149    0.52879    1.000
    Si3176   Si       0.54939    0.11285    0.67623    1.000
    N3177    N        0.54325    0.07240    0.68635    1.000
    N3178    N        0.55025    0.11916    0.63295    1.000
    Si3179   Si       0.55489    0.22531    0.67407    1.000
    Si3180   Si       0.52188    0.17520    0.67848    1.000
    N3181    N        0.52517    0.21283    0.70348    1.000
    Si3182   Si       0.56890    0.15807    0.62562    1.000
    N3183    N        0.53291    0.24252    0.64106    1.000
    N3184    N        0.56239    0.18472    0.66253    1.000
    N3185    N        0.55841    0.08802    0.83022    1.000
    N3186    N        0.56643    0.03708    0.77926    1.000
    Si3187   Si       0.52990    0.02112    0.76131    1.000
    Si3188   Si       0.53266    0.12469    0.77413    1.000
    N3189    N        0.57042    0.10817    0.76136    1.000
    N3190    N        0.54786    0.14711    0.81107    1.000
    Si3191   Si       0.52911    0.15485    0.84975    1.000
    Si3192   Si       0.53228    0.18805    0.79652    1.000
    Si3193   Si       0.57114    0.23383    0.84194    1.000
    N3194    N        0.57162    0.20545    0.80919    1.000
    N3195    N        0.53694    0.05032    0.95774    1.000
    N3196    N        0.54819    0.07823    0.89508    1.000
    Si3197   Si       0.52077    0.01676    0.93377    1.000
    Si3198   Si       0.57316    0.11442    0.89888    1.000
    N3199    N        0.57363    0.11350    0.94333    1.000
    N3200    N        0.55151    0.00920    0.90521    1.000
    N3201    N        0.56986    0.18556    0.94624    1.000
    Si3202   Si       0.56152    0.22651    0.96153    1.000
    N3203    N        0.53597    0.25053    0.93572    1.000
    N3204    N        0.55622    0.15089    0.88352    1.000
    Si3205   Si       0.57450    0.18459    0.90248    1.000
    N3206    N        0.55608    0.21706    0.88050    1.000
    N3207    N        0.53758    0.28153    0.05467    1.000
    Si3208   Si       0.55664    0.36531    0.06411    1.000
    N3209    N        0.57714    0.33732    0.03584    1.000
    Si3210   Si       0.52385    0.25997    0.01990    1.000
    N3211    N        0.53842    0.40032    0.04767    1.000
    N3212    N        0.55583    0.44113    0.10165    1.000
    Si3213   Si       0.52375    0.43281    0.07182    1.000
    Si3214   Si       0.54488    0.47965    0.11643    1.000
    Si3215   Si       0.51887    0.46927    0.00151    1.000
    N3216    N        0.55333    0.49581    0.99862    1.000
    N3217    N        0.54487    0.32209    0.17989    1.000
    Si3218   Si       0.54689    0.34644    0.21702    1.000
    Si3219   Si       0.53267    0.26041    0.13780    1.000
    N3220    N        0.57416    0.26902    0.14750    1.000
    Si3221   Si       0.57366    0.28967    0.18466    1.000
    N3222    N        0.52776    0.31711    0.24468    1.000
    N3223    N        0.52175    0.38131    0.20935    1.000
    N3224    N        0.56232    0.25853    0.21337    1.000
    Si3225   Si       0.53059    0.41230    0.18051    1.000
    N3226    N        0.55463    0.49625    0.24020    1.000
    Si3227   Si       0.56913    0.45298    0.23923    1.000
    Si3228   Si       0.53313    0.49028    0.19615    1.000
    N3229    N        0.55222    0.49329    0.15566    1.000
    N3230    N        0.56343    0.40189    0.15593    1.000
    N3231    N        0.54344    0.44645    0.20482    1.000
    N3232    N        0.55951    0.26950    0.28452    1.000
    Si3233   Si       0.54005    0.27679    0.24653    1.000
    N3234    N        0.53705    0.38470    0.31149    1.000
    Si3235   Si       0.52963    0.48667    0.28021    1.000
    N3236    N        0.55286    0.44956    0.28129    1.000
    N3237    N        0.56378    0.43130    0.35011    1.000
    Si3238   Si       0.56473    0.41802    0.30749    1.000
    Si3239   Si       0.53401    0.30843    0.39998    1.000
    Si3240   Si       0.55421    0.37325    0.42664    1.000
    N3241    N        0.53131    0.36525    0.46349    1.000
    Si3242   Si       0.53307    0.32378    0.47371    1.000
    N3243    N        0.53165    0.35149    0.39653    1.000
    N3244    N        0.56670    0.30059    0.48722    1.000
    N3245    N        0.56666    0.48043    0.44393    1.000
    Si3246   Si       0.53094    0.43254    0.37789    1.000
    Si3247   Si       0.55291    0.43897    0.44556    1.000
    Si3248   Si       0.54597    0.50047    0.40836    1.000
    N3249    N        0.55663    0.41361    0.40993    1.000
    N3250    N        0.52113    0.47315    0.38735    1.000
    N3251    N        0.57798    0.41375    0.47231    1.000
    N3252    N        0.55520    0.33886    0.56124    1.000
    Si3253   Si       0.55553    0.30135    0.58478    1.000
    Si3254   Si       0.56578    0.27087    0.52159    1.000
    N3255    N        0.55960    0.46614    0.61545    1.000
    Si3256   Si       0.52952    0.42131    0.55124    1.000
    N3257    N        0.57044    0.43032    0.55226    1.000
    Si3258   Si       0.52071    0.44633    0.61831    1.000
    Si3259   Si       0.57628    0.33283    0.65918    1.000
    N3260    N        0.55442    0.31764    0.69384    1.000
    Si3261   Si       0.52269    0.28397    0.63500    1.000
    N3262    N        0.56047    0.30682    0.62820    1.000
    N3263    N        0.56632    0.37538    0.65607    1.000
    Si3264   Si       0.57300    0.28631    0.71904    1.000
    Si3265   Si       0.54871    0.44753    0.73979    1.000
    Si3266   Si       0.57380    0.48958    0.64928    1.000
    N3267    N        0.54001    0.50427    0.67222    1.000
    Si3268   Si       0.53948    0.40333    0.67924    1.000
    N3269    N        0.56781    0.42541    0.70506    1.000
    N3270    N        0.51691    0.43451    0.66004    1.000
    Si3271   Si       0.53623    0.29918    0.85128    1.000
    N3272    N        0.54971    0.26695    0.82556    1.000
    N3273    N        0.55946    0.37700    0.81519    1.000
    N3274    N        0.57239    0.31125    0.86974    1.000
    N3275    N        0.57790    0.35999    0.74711    1.000
    Si3276   Si       0.52019    0.36837    0.83435    1.000
    Si3277   Si       0.52951    0.26110    0.78879    1.000
    N3278    N        0.54155    0.27864    0.74905    1.000
    N3279    N        0.52758    0.50602    0.78137    1.000
    Si3280   Si       0.56280    0.50805    0.86050    1.000
    Si3281   Si       0.56998    0.50048    0.78234    1.000
    Si3282   Si       0.56931    0.39040    0.77601    1.000
    N3283    N        0.53557    0.41765    0.76635    1.000
    N3284    N        0.57193    0.43383    0.86603    1.000
    N3285    N        0.54388    0.37548    0.87442    1.000
    N3286    N        0.55774    0.32531    0.93535    1.000
    Si3287   Si       0.53346    0.29092    0.94822    1.000
    Si3288   Si       0.56804    0.34555    0.89497    1.000
    Si3289   Si       0.53745    0.35862    0.96086    1.000
    N3290    N        0.54755    0.28470    0.98940    1.000
    N3291    N        0.57371    0.37809    0.97560    1.000
    N3292    N        0.57791    0.49197    0.89678    1.000
    N3293    N        0.52392    0.43798    0.91619    1.000
    N3294    N        0.52946    0.43017    0.98657    1.000
    Si3295   Si       0.56343    0.44943    0.90510    1.000
    Si3296   Si       0.56999    0.42138    0.97262    1.000
    Si3297   Si       0.55000    0.53955    0.06382    1.000
    N3298    N        0.54701    0.57633    0.08553    1.000
    N3299    N        0.57579    0.54809    0.03019    1.000
    N3300    N        0.56384    0.51007    0.09213    1.000
    Si3301   Si       0.56056    0.66455    0.03552    1.000
    N3302    N        0.53386    0.73179    0.07422    1.000
    Si3303   Si       0.57232    0.73566    0.05113    1.000
    Si3304   Si       0.56649    0.65017    0.11329    1.000
    Si3305   Si       0.52660    0.71439    0.11255    1.000
    N3306    N        0.57389    0.70389    0.02228    1.000
    Si3307   Si       0.53731    0.58737    0.12413    1.000
    Si3308   Si       0.56982    0.53239    0.16495    1.000
    Si3309   Si       0.55956    0.60876    0.23080    1.000
    N3310    N        0.56479    0.57486    0.15747    1.000
    N3311    N        0.53054    0.53480    0.19542    1.000
    N3312    N        0.52972    0.61486    0.19950    1.000
    Si3313   Si       0.51618    0.57598    0.18318    1.000
    Si3314   Si       0.51746    0.65705    0.20088    1.000
    N3315    N        0.53104    0.63010    0.12589    1.000
    N3316    N        0.52981    0.73875    0.15091    1.000
    N3317    N        0.54867    0.68567    0.19669    1.000
    Si3318   Si       0.56439    0.71497    0.16512    1.000
    N3319    N        0.56004    0.68996    0.12770    1.000
    N3320    N        0.54686    0.52361    0.30006    1.000
    Si3321   Si       0.52703    0.55854    0.27820    1.000
    N3322    N        0.55845    0.57034    0.25217    1.000
    N3323    N        0.55254    0.64129    0.26196    1.000
    N3324    N        0.55626    0.72790    0.25949    1.000
    Si3325   Si       0.55621    0.72281    0.30344    1.000
    N3326    N        0.54019    0.68427    0.36645    1.000
    N3327    N        0.57789    0.68461    0.30682    1.000
    N3328    N        0.57452    0.75206    0.33016    1.000
    Si3329   Si       0.53320    0.60643    0.48398    1.000
    Si3330   Si       0.55494    0.55860    0.42617    1.000
    N3331    N        0.54810    0.59341    0.40144    1.000
    N3332    N        0.55732    0.57501    0.46764    1.000
    N3333    N        0.53812    0.64849    0.47083    1.000
    Si3334   Si       0.54527    0.67701    0.40977    1.000
    Si3335   Si       0.56042    0.68412    0.47946    1.000
    Si3336   Si       0.57324    0.74794    0.44018    1.000
    N3337    N        0.55599    0.70642    0.44031    1.000
    N3338    N        0.53078    0.59076    0.52467    1.000
    N3339    N        0.56637    0.61617    0.58609    1.000
    Si3340   Si       0.56608    0.60203    0.54590    1.000
    N3341    N        0.55304    0.51431    0.51073    1.000
    Si3342   Si       0.57398    0.55194    0.50063    1.000
    N3343    N        0.56365    0.74071    0.56763    1.000
    Si3344   Si       0.54121    0.65059    0.59954    1.000
    N3345    N        0.54855    0.69248    0.52091    1.000
    Si3346   Si       0.53520    0.72744    0.60134    1.000
    N3347    N        0.56620    0.68725    0.59790    1.000
    Si3348   Si       0.57525    0.70203    0.55449    1.000
    Si3349   Si       0.54176    0.54307    0.69278    1.000
    N3350    N        0.52096    0.57835    0.67824    1.000
    Si3351   Si       0.56533    0.67900    0.72814    1.000
    N3352    N        0.54743    0.75280    0.63668    1.000
    N3353    N        0.54529    0.64002    0.71220    1.000
    N3354    N        0.52525    0.63837    0.63861    1.000
    Si3355   Si       0.54152    0.75192    0.71571    1.000
    N3356    N        0.53663    0.70944    0.71912    1.000
    N3357    N        0.53486    0.59789    0.77490    1.000
    Si3358   Si       0.53363    0.55398    0.77340    1.000
    Si3359   Si       0.55643    0.62559    0.75213    1.000
    N3360    N        0.55371    0.55050    0.87094    1.000
    Si3361   Si       0.57211    0.68987    0.80295    1.000
    N3362    N        0.56532    0.66475    0.76859    1.000
    N3363    N        0.55049    0.72972    0.80383    1.000
    N3364    N        0.56184    0.66843    0.84021    1.000
    Si3365   Si       0.53376    0.68643    0.86757    1.000
    N3366    N        0.51714    0.62831    0.97420    1.000
    N3367    N        0.51929    0.55900    0.98548    1.000
    Si3368   Si       0.56029    0.61533    0.97633    1.000
    Si3369   Si       0.55889    0.54106    0.98890    1.000
    Si3370   Si       0.51707    0.74369    0.95657    1.000
    N3371    N        0.54460    0.75688    0.99012    1.000
    Si3372   Si       0.56754    0.71646    0.98298    1.000
    N3373    N        0.53372    0.70037    0.95971    1.000
    N3374    N        0.56774    0.64361    0.94154    1.000
    N3375    N        0.55600    0.75624    0.92819    1.000
    Si3376   Si       0.52830    0.65973    0.94406    1.000
    N3377    N        0.52159    0.66173    0.90056    1.000
    N3378    N        0.54789    0.72572    0.87862    1.000
    N3379    N        0.53784    0.81345    0.08950    1.000
    N3380    N        0.54091    0.82804    0.01926    1.000
    Si3381   Si       0.56746    0.79190    0.00105    1.000
    Si3382   Si       0.56677    0.86329    0.02580    1.000
    N3383    N        0.57728    0.77781    0.04420    1.000
    Si3384   Si       0.55449    0.00169    0.04431    1.000
    N3385    N        0.55401    0.90310    0.03540    1.000
    N3386    N        0.54544    0.94373    0.09508    1.000
    Si3387   Si       0.57220    0.93317    0.06050    1.000
    Si3388   Si       0.56316    0.81656    0.19179    1.000
    N3389    N        0.53349    0.86104    0.13652    1.000
    N3390    N        0.52966    0.80227    0.16764    1.000
    N3391    N        0.56629    0.80138    0.23291    1.000
    Si3392   Si       0.57150    0.87580    0.14900    1.000
    N3393    N        0.57475    0.85853    0.18923    1.000
    Si3394   Si       0.55005    0.76170    0.23169    1.000
    Si3395   Si       0.51987    0.82077    0.12800    1.000
    N3396    N        0.56079    0.95700    0.24363    1.000
    Si3397   Si       0.54957    0.94254    0.13903    1.000
    Si3398   Si       0.52701    0.98184    0.23758    1.000
    N3399    N        0.56089    0.97904    0.15874    1.000
    N3400    N        0.56207    0.85253    0.27662    1.000
    N3401    N        0.53098    0.79591    0.30218    1.000
    N3402    N        0.53413    0.87655    0.36110    1.000
    Si3403   Si       0.57092    0.79633    0.32275    1.000
    Si3404   Si       0.52158    0.83611    0.28179    1.000
    N3405    N        0.55680    0.91796    0.30268    1.000
    Si3406   Si       0.55686    0.95941    0.28794    1.000
    Si3407   Si       0.52336    0.89858    0.32488    1.000
    N3408    N        0.54631    0.94492    0.37147    1.000
    N3409    N        0.52234    0.98600    0.28163    1.000
    Si3410   Si       0.56958    0.85806    0.37796    1.000
    N3411    N        0.56294    0.77586    0.47027    1.000
    N3412    N        0.54912    0.83851    0.48141    1.000
    N3413    N        0.57439    0.83478    0.41521    1.000
    Si3414   Si       0.53699    0.79946    0.49587    1.000
    Si3415   Si       0.53421    0.94495    0.48045    1.000
    N3416    N        0.54439    0.80492    0.53919    1.000
    N3417    N        0.53380    0.85551    0.59279    1.000
    Si3418   Si       0.52934    0.87283    0.50038    1.000
    Si3419   Si       0.56344    0.83410    0.61613    1.000
    Si3420   Si       0.52035    0.83387    0.55710    1.000
    Si3421   Si       0.57591    0.78062    0.55726    1.000
    Si3422   Si       0.56913    0.91465    0.55657    1.000
    N3423    N        0.53589    0.92273    0.58285    1.000
    Si3424   Si       0.55598    0.98833    0.54171    1.000
    N3425    N        0.56401    0.89295    0.52027    1.000
    N3426    N        0.52704    0.96899    0.51640    1.000
    N3427    N        0.52953    0.99557    0.57553    1.000
    Si3428   Si       0.52157    0.89256    0.60745    1.000
    N3429    N        0.57813    0.85953    0.70333    1.000
    Si3430   Si       0.54351    0.86676    0.73122    1.000
    N3431    N        0.53456    0.81942    0.64425    1.000
    N3432    N        0.55328    0.96634    0.67272    1.000
    N3433    N        0.53385    0.90963    0.73045    1.000
    Si3434   Si       0.57258    0.88648    0.66749    1.000
    N3435    N        0.54200    0.98647    0.73846    1.000
    N3436    N        0.53677    0.90157    0.64783    1.000
    Si3437   Si       0.52087    0.93944    0.66067    1.000
    Si3438   Si       0.52565    0.98377    0.69994    1.000
    N3439    N        0.55135    0.86270    0.77491    1.000
    N3440    N        0.56503    0.80309    0.80450    1.000
    N3441    N        0.53019    0.84554    0.84155    1.000
    Si3442   Si       0.53420    0.83277    0.80016    1.000
    Si3443   Si       0.56634    0.86525    0.85603    1.000
    Si3444   Si       0.56202    0.76572    0.78207    1.000
    N3445    N        0.53514    0.77635    0.75016    1.000
    Si3446   Si       0.54116    0.89895    0.79685    1.000
    N3447    N        0.53785    0.94165    0.79035    1.000
    N3448    N        0.57107    0.89990    0.83044    1.000
    Si3449   Si       0.55073    0.94577    0.74786    1.000
    N3450    N        0.52337    0.97444    0.84891    1.000
    Si3451   Si       0.52535    0.83189    0.97882    1.000
    N3452    N        0.53461    0.80314    0.89445    1.000
    N3453    N        0.55952    0.81573    0.96072    1.000
    Si3454   Si       0.56856    0.79791    0.92114    1.000
    N3455    N        0.56063    0.87747    0.89697    1.000
    Si3456   Si       0.52473    0.75988    0.89226    1.000
    Si3457   Si       0.54021    0.90638    0.99175    1.000
    N3458    N        0.54703    0.92306    0.95066    1.000
    Si3459   Si       0.54795    0.97175    0.88453    1.000
    N3460    N        0.57513    0.94114    0.88490    1.000
    Si3461   Si       0.57194    0.91351    0.91789    1.000
    N3462    N        0.61627    0.04639    0.05183    1.000
    Si3463   Si       0.60777    0.01923    0.08624    1.000
    Si3464   Si       0.58587    0.06737    0.02960    1.000
    N3465    N        0.60849    0.23441    0.09168    1.000
    N3466    N        0.60960    0.20082    0.02614    1.000
    Si3467   Si       0.62231    0.23659    0.04935    1.000
    N3468    N        0.58470    0.10074    0.12603    1.000
    Si3469   Si       0.62506    0.08471    0.12115    1.000
    N3470    N        0.61808    0.04129    0.11964    1.000
    N3471    N        0.60672    0.02300    0.19165    1.000
    Si3472   Si       0.63440    0.04042    0.16039    1.000
    N3473    N        0.62706    0.13083    0.23127    1.000
    Si3474   Si       0.63255    0.18002    0.13421    1.000
    N3475    N        0.58850    0.17835    0.12752    1.000
    N3476    N        0.60320    0.19373    0.20423    1.000
    Si3477   Si       0.60599    0.14939    0.19844    1.000
    N3478    N        0.63285    0.14668    0.16262    1.000
    N3479    N        0.61400    0.04835    0.33673    1.000
    N3480    N        0.61127    0.10984    0.30351    1.000
    Si3481   Si       0.62036    0.06769    0.29582    1.000
    N3482    N        0.58966    0.05784    0.26518    1.000
    Si3483   Si       0.63681    0.06733    0.36849    1.000
    Si3484   Si       0.61656    0.13429    0.34132    1.000
    Si3485   Si       0.58198    0.01961    0.33709    1.000
    Si3486   Si       0.60397    0.13504    0.26797    1.000
    N3487    N        0.62472    0.24418    0.28876    1.000
    N3488    N        0.62128    0.16913    0.28748    1.000
    Si3489   Si       0.59961    0.20700    0.29253    1.000
    N3490    N        0.59736    0.16728    0.35807    1.000
    Si3491   Si       0.58092    0.20574    0.36549    1.000
    N3492    N        0.61549    0.10653    0.37409    1.000
    Si3493   Si       0.61700    0.07815    0.48806    1.000
    Si3494   Si       0.59291    0.02938    0.40855    1.000
    N3495    N        0.63348    0.04681    0.40636    1.000
    N3496    N        0.63286    0.11267    0.46926    1.000
    Si3497   Si       0.60329    0.14613    0.46127    1.000
    N3498    N        0.62225    0.18467    0.46729    1.000
    N3499    N        0.60876    0.23835    0.37917    1.000
    Si3500   Si       0.61238    0.09897    0.56266    1.000
    N3501    N        0.61575    0.07077    0.53056    1.000
    Si3502   Si       0.60900    0.02793    0.53925    1.000
    N3503    N        0.60696    0.07661    0.60100    1.000
    N3504    N        0.59406    0.01377    0.57740    1.000
    N3505    N        0.60089    0.18361    0.53067    1.000
    N3506    N        0.59622    0.24855    0.50091    1.000
    N3507    N        0.62855    0.19039    0.59300    1.000
    Si3508   Si       0.59621    0.20604    0.49407    1.000
    Si3509   Si       0.58154    0.05071    0.68137    1.000
    N3510    N        0.62889    0.09739    0.73915    1.000
    N3511    N        0.60987    0.08222    0.67081    1.000
    N3512    N        0.60133    0.04417    0.72126    1.000
    Si3513   Si       0.61945    0.10291    0.63472    1.000
    N3514    N        0.57990    0.02388    0.64577    1.000
    Si3515   Si       0.63119    0.00740    0.72500    1.000
    Si3516   Si       0.60056    0.13276    0.73720    1.000
    N3517    N        0.62381    0.20362    0.66617    1.000
    N3518    N        0.62976    0.22734    0.73109    1.000
    N3519    N        0.61142    0.14687    0.63865    1.000
    N3520    N        0.57833    0.13611    0.69944    1.000
    Si3521   Si       0.60310    0.16452    0.67862    1.000
    Si3522   Si       0.62525    0.23792    0.68962    1.000
    N3523    N        0.58349    0.25452    0.68989    1.000
    N3524    N        0.61173    0.08062    0.79887    1.000
    N3525    N        0.59126    0.03117    0.85115    1.000
    Si3526   Si       0.59144    0.06840    0.75654    1.000
    Si3527   Si       0.58490    0.11677    0.80909    1.000
    Si3528   Si       0.58124    0.05369    0.81727    1.000
    N3529    N        0.61187    0.14463    0.82835    1.000
    N3530    N        0.60685    0.16579    0.76327    1.000
    Si3531   Si       0.60803    0.18040    0.80462    1.000
    N3532    N        0.61073    0.24972    0.85296    1.000
    Si3533   Si       0.63069    0.14979    0.86758    1.000
    N3534    N        0.60567    0.05095    0.92162    1.000
    N3535    N        0.61644    0.11385    0.88986    1.000
    N3536    N        0.59999    0.07541    0.98910    1.000
    Si3537   Si       0.63470    0.10005    0.98248    1.000
    Si3538   Si       0.57650    0.06990    0.95352    1.000
    Si3539   Si       0.57428    0.04317    0.88966    1.000
    Si3540   Si       0.61490    0.00775    0.93231    1.000
    Si3541   Si       0.63802    0.25133    0.94395    1.000
    N3542    N        0.62311    0.14203    0.98006    1.000
    Si3543   Si       0.58139    0.14885    0.96831    1.000
    N3544    N        0.61743    0.17831    0.89716    1.000
    N3545    N        0.59718    0.24975    0.96221    1.000
    N3546    N        0.59838    0.30513    0.09216    1.000
    Si3547   Si       0.61927    0.34203    0.09852    1.000
    N3548    N        0.60124    0.27021    0.03101    1.000
    Si3549   Si       0.60062    0.35429    0.00281    1.000
    N3550    N        0.58989    0.37461    0.09273    1.000
    Si3551   Si       0.60764    0.27089    0.11841    1.000
    Si3552   Si       0.57806    0.29865    0.05422    1.000
    N3553    N        0.63258    0.37864    0.01849    1.000
    Si3554   Si       0.63564    0.42000    0.00888    1.000
    N3555    N        0.62286    0.50059    0.03082    1.000
    N3556    N        0.59914    0.44358    0.99942    1.000
    Si3557   Si       0.58159    0.40895    0.11836    1.000
    Si3558   Si       0.59716    0.48843    0.99672    1.000
    N3559    N        0.63301    0.47873    0.09827    1.000
    Si3560   Si       0.61230    0.33342    0.23633    1.000
    N3561    N        0.57918    0.36321    0.23915    1.000
    N3562    N        0.60588    0.31377    0.19837    1.000
    N3563    N        0.63195    0.34829    0.13982    1.000
    N3564    N        0.60744    0.43144    0.23066    1.000
    N3565    N        0.62257    0.42091    0.12791    1.000
    N3566    N        0.61664    0.30225    0.26360    1.000
    Si3567   Si       0.59940    0.28001    0.29597    1.000
    N3568    N        0.60356    0.30878    0.32678    1.000
    Si3569   Si       0.59851    0.33290    0.36191    1.000
    N3570    N        0.59611    0.37486    0.36453    1.000
    N3571    N        0.60547    0.40762    0.29511    1.000
    Si3572   Si       0.60673    0.39200    0.25434    1.000
    N3573    N        0.63024    0.43834    0.35719    1.000
    N3574    N        0.61153    0.50312    0.33793    1.000
    Si3575   Si       0.59492    0.26926    0.40465    1.000
    Si3576   Si       0.59107    0.27337    0.46497    1.000
    N3577    N        0.62065    0.28948    0.43866    1.000
    N3578    N        0.59496    0.36111    0.43524    1.000
    Si3579   Si       0.62532    0.33044    0.42423    1.000
    N3580    N        0.57624    0.30547    0.38832    1.000
    N3581    N        0.62213    0.41885    0.41350    1.000
    Si3582   Si       0.59500    0.41592    0.37888    1.000
    Si3583   Si       0.61131    0.39956    0.44993    1.000
    Si3584   Si       0.57877    0.49082    0.48439    1.000
    N3585    N        0.60245    0.36332    0.60093    1.000
    Si3586   Si       0.59660    0.35244    0.56149    1.000
    Si3587   Si       0.62446    0.28012    0.56797    1.000
    N3588    N        0.58219    0.27661    0.56253    1.000
    N3589    N        0.62824    0.27176    0.61144    1.000
    N3590    N        0.60760    0.38276    0.53118    1.000
    N3591    N        0.63100    0.32278    0.55977    1.000
    N3592    N        0.60040    0.46296    0.50529    1.000
    N3593    N        0.61170    0.48564    0.56937    1.000
    N3594    N        0.61282    0.42789    0.60769    1.000
    Si3595   Si       0.58735    0.45191    0.58381    1.000
    Si3596   Si       0.58846    0.42038    0.51490    1.000
    Si3597   Si       0.63119    0.47455    0.53314    1.000
    N3598    N        0.61875    0.32795    0.66553    1.000
    N3599    N        0.61070    0.29349    0.74035    1.000
    N3600    N        0.60689    0.47166    0.67324    1.000
    Si3601   Si       0.60807    0.43251    0.69136    1.000
    N3602    N        0.62233    0.39797    0.66974    1.000
    Si3603   Si       0.60014    0.39183    0.63277    1.000
    N3604    N        0.62769    0.33545    0.79325    1.000
    Si3605   Si       0.61341    0.33602    0.75199    1.000
    Si3606   Si       0.63223    0.37703    0.80764    1.000
    N3607    N        0.62045    0.38025    0.84952    1.000
    N3608    N        0.60753    0.40859    0.78601    1.000
    Si3609   Si       0.62039    0.44387    0.76619    1.000
    N3610    N        0.58356    0.46748    0.75861    1.000
    N3611    N        0.58601    0.50490    0.82339    1.000
    Si3612   Si       0.57973    0.39590    0.85002    1.000
    Si3613   Si       0.60380    0.32208    0.93568    1.000
    Si3614   Si       0.60913    0.28769    0.87433    1.000
    Si3615   Si       0.58909    0.28234    0.99164    1.000
    N3616    N        0.62135    0.28729    0.91533    1.000
    N3617    N        0.60763    0.35591    0.90947    1.000
    N3618    N        0.60982    0.31912    0.97766    1.000
    Si3619   Si       0.64127    0.37389    0.88803    1.000
    Si3620   Si       0.63457    0.43857    0.93426    1.000
    N3621    N        0.58991    0.43244    0.93503    1.000
    Si3622   Si       0.61749    0.54357    0.03707    1.000
    N3623    N        0.62645    0.54543    0.07859    1.000
    Si3624   Si       0.60706    0.51319    0.10120    1.000
    N3625    N        0.58009    0.63802    0.00778    1.000
    N3626    N        0.60686    0.72520    0.07706    1.000
    Si3627   Si       0.61744    0.68242    0.07404    1.000
    Si3628   Si       0.62037    0.75110    0.10941    1.000
    Si3629   Si       0.62271    0.64497    0.00472    1.000
    N3630    N        0.58040    0.65798    0.07382    1.000
    N3631    N        0.60775    0.52472    0.14246    1.000
    N3632    N        0.59444    0.53847    0.20243    1.000
    Si3633   Si       0.59748    0.60138    0.16724    1.000
    N3634    N        0.59635    0.61432    0.20818    1.000
    Si3635   Si       0.62841    0.54546    0.17591    1.000
    N3636    N        0.63670    0.58443    0.16170    1.000
    Si3637   Si       0.57814    0.53284    0.24092    1.000
    N3638    N        0.59865    0.63082    0.13519    1.000
    N3639    N        0.60332    0.73590    0.14615    1.000
    N3640    N        0.60251    0.67483    0.23722    1.000
    Si3641   Si       0.62516    0.64451    0.21545    1.000
    N3642    N        0.57998    0.73942    0.20503    1.000
    Si3643   Si       0.57349    0.70314    0.22827    1.000
    N3644    N        0.60750    0.53086    0.27370    1.000
    Si3645   Si       0.60546    0.60129    0.32300    1.000
    Si3646   Si       0.58744    0.52658    0.31140    1.000
    N3647    N        0.61453    0.62099    0.28551    1.000
    N3648    N        0.59002    0.56232    0.33446    1.000
    N3649    N        0.58607    0.63208    0.34577    1.000
    Si3650   Si       0.57854    0.67357    0.34808    1.000
    Si3651   Si       0.60176    0.74309    0.36202    1.000
    Si3652   Si       0.59012    0.65677    0.27701    1.000
    N3653    N        0.60968    0.69928    0.36601    1.000
    Si3654   Si       0.61111    0.54646    0.37015    1.000
    N3655    N        0.58296    0.53264    0.40583    1.000
    N3656    N        0.61770    0.59126    0.38720    1.000
    N3657    N        0.60281    0.52677    0.47514    1.000
    Si3658   Si       0.61206    0.51321    0.43395    1.000
    Si3659   Si       0.58131    0.61425    0.38532    1.000
    N3660    N        0.63353    0.61240    0.45189    1.000
    Si3661   Si       0.61172    0.64880    0.44231    1.000
    N3662    N        0.58023    0.64849    0.41135    1.000
    N3663    N        0.60452    0.67643    0.47569    1.000
    N3664    N        0.61449    0.74620    0.45926    1.000
    Si3665   Si       0.63256    0.70807    0.45844    1.000
    N3666    N        0.57992    0.75889    0.39799    1.000
    N3667    N        0.59084    0.56574    0.53841    1.000
    Si3668   Si       0.60381    0.61427    0.60987    1.000
    Si3669   Si       0.62387    0.51433    0.59907    1.000
    N3670    N        0.58866    0.62942    0.52029    1.000
    Si3671   Si       0.63328    0.57251    0.54834    1.000
    N3672    N        0.63348    0.60559    0.57721    1.000
    N3673    N        0.61404    0.69033    0.54689    1.000
    Si3674   Si       0.61887    0.66098    0.51491    1.000
    Si3675   Si       0.60351    0.68842    0.62352    1.000
    N3676    N        0.58219    0.55603    0.69837    1.000
    N3677    N        0.61811    0.58178    0.63597    1.000
    Si3678   Si       0.60842    0.54965    0.66357    1.000
    N3679    N        0.59637    0.52123    0.63210    1.000
    Si3680   Si       0.60083    0.56565    0.73822    1.000
    N3681    N        0.59432    0.60853    0.74022    1.000
    N3682    N        0.60455    0.71734    0.65457    1.000
    N3683    N        0.60710    0.67595    0.71492    1.000
    N3684    N        0.61014    0.64788    0.63754    1.000
    Si3685   Si       0.62840    0.70438    0.68886    1.000
    Si3686   Si       0.62336    0.63816    0.73325    1.000
    Si3687   Si       0.58516    0.75857    0.65608    1.000
    N3688    N        0.61109    0.56672    0.83719    1.000
    Si3689   Si       0.60991    0.53831    0.80758    1.000
    N3690    N        0.57946    0.54349    0.77292    1.000
    Si3691   Si       0.63378    0.60427    0.84563    1.000
    N3692    N        0.62968    0.64725    0.84198    1.000
    Si3693   Si       0.62530    0.74242    0.79517    1.000
    N3694    N        0.61228    0.70353    0.80758    1.000
    Si3695   Si       0.59495    0.65293    0.86805    1.000
    N3696    N        0.57860    0.57709    0.96937    1.000
    Si3697   Si       0.59163    0.56838    0.87774    1.000
    N3698    N        0.59331    0.61181    0.87868    1.000
    Si3699   Si       0.62051    0.56209    0.96784    1.000
    N3700    N        0.61951    0.54671    0.90241    1.000
    N3701    N        0.60244    0.52013    0.96535    1.000
    Si3702   Si       0.61105    0.50762    0.92080    1.000
    Si3703   Si       0.58208    0.72618    0.90618    1.000
    Si3704   Si       0.60221    0.67221    0.93749    1.000
    N3705    N        0.60261    0.71310    0.95450    1.000
    N3706    N        0.62985    0.65360    0.96220    1.000
    N3707    N        0.61911    0.74958    0.90046    1.000
    N3708    N        0.59855    0.68413    0.89795    1.000
    N3709    N        0.60955    0.79268    0.10495    1.000
    Si3710   Si       0.61511    0.87169    0.08583    1.000
    N3711    N        0.58964    0.84749    0.05936    1.000
    Si3712   Si       0.57885    0.80848    0.07794    1.000
    N3713    N        0.61172    0.79944    0.99194    1.000
    Si3714   Si       0.60969    0.97000    0.00153    1.000
    N3715    N        0.60674    0.91525    0.07936    1.000
    N3716    N        0.58057    0.96869    0.03397    1.000
    N3717    N        0.62870    0.93208    0.99161    1.000
    N3718    N        0.60136    0.85830    0.12443    1.000
    N3719    N        0.62442    0.84165    0.23841    1.000
    N3720    N        0.59770    0.79927    0.16983    1.000
    Si3721   Si       0.60794    0.87273    0.21226    1.000
    Si3722   Si       0.61787    0.82041    0.13816    1.000
    Si3723   Si       0.60963    0.75982    0.18188    1.000
    N3724    N        0.63842    0.88743    0.18548    1.000
    Si3725   Si       0.62229    0.92449    0.16588    1.000
    N3726    N        0.58031    0.91613    0.15213    1.000
    N3727    N        0.59706    0.90025    0.24330    1.000
    N3728    N        0.62137    0.95248    0.19907    1.000
    Si3729   Si       0.60112    0.94188    0.23577    1.000
    N3730    N        0.60479    0.80195    0.29407    1.000
    Si3731   Si       0.59021    0.82281    0.25931    1.000
    N3732    N        0.61394    0.87893    0.31194    1.000
    N3733    N        0.57805    0.82033    0.35746    1.000
    N3734    N        0.61666    0.94310    0.34712    1.000
    Si3735   Si       0.62408    0.96774    0.31065    1.000
    Si3736   Si       0.62514    0.90136    0.34823    1.000
    N3737    N        0.62541    0.95639    0.26800    1.000
    N3738    N        0.58446    0.98791    0.30836    1.000
    Si3739   Si       0.58285    0.88963    0.28220    1.000
    Si3740   Si       0.60621    0.77932    0.48418    1.000
    N3741    N        0.61665    0.81714    0.46282    1.000
    Si3742   Si       0.59012    0.80034    0.39555    1.000
    Si3743   Si       0.58328    0.84380    0.45593    1.000
    N3744    N        0.63431    0.80021    0.39961    1.000
    N3745    N        0.59564    0.88600    0.45551    1.000
    N3746    N        0.60284    0.88595    0.38154    1.000
    N3747    N        0.58845    0.00955    0.44696    1.000
    Si3748   Si       0.60334    0.96865    0.45135    1.000
    N3749    N        0.58956    0.00146    0.37565    1.000
    Si3750   Si       0.59479    0.90835    0.49175    1.000
    N3751    N        0.60474    0.94558    0.41495    1.000
    Si3752   Si       0.61623    0.90207    0.41990    1.000
    N3753    N        0.57687    0.94540    0.47693    1.000
    Si3754   Si       0.58862    0.95687    0.37647    1.000
    N3755    N        0.60892    0.77793    0.52788    1.000
    Si3756   Si       0.62445    0.87340    0.60670    1.000
    N3757    N        0.58878    0.80623    0.59176    1.000
    Si3758   Si       0.62742    0.80173    0.60932    1.000
    N3759    N        0.60536    0.89636    0.57430    1.000
    Si3760   Si       0.60792    0.97354    0.58525    1.000
    N3761    N        0.58415    0.95556    0.55293    1.000
    N3762    N        0.63387    0.91206    0.51217    1.000
    N3763    N        0.59004    0.86390    0.63192    1.000
    N3764    N        0.61332    0.79430    0.64997    1.000
    Si3765   Si       0.61969    0.87114    0.70351    1.000
    Si3766   Si       0.61655    0.76903    0.72358    1.000
    N3767    N        0.63589    0.80677    0.71839    1.000
    N3768    N        0.58043    0.76096    0.69926    1.000
    Si3769   Si       0.59059    0.98180    0.65838    1.000
    Si3770   Si       0.61738    0.94213    0.71192    1.000
    N3771    N        0.60653    0.95985    0.62686    1.000
    N3772    N        0.60485    0.91060    0.68486    1.000
    N3773    N        0.61539    0.98108    0.69493    1.000
    Si3774   Si       0.60497    0.80976    0.82101    1.000
    N3775    N        0.59984    0.83634    0.85428    1.000
    N3776    N        0.61590    0.76908    0.83042    1.000
    N3777    N        0.60166    0.75907    0.76346    1.000
    N3778    N        0.60418    0.96748    0.82473    1.000
    Si3779   Si       0.61618    0.95898    0.78323    1.000
    Si3780   Si       0.59498    0.93335    0.84720    1.000
    Si3781   Si       0.62270    0.00117    0.84875    1.000
    N3782    N        0.63181    0.91435    0.85878    1.000
    N3783    N        0.59502    0.94124    0.74886    1.000
    N3784    N        0.63635    0.99374    0.76515    1.000
    Si3785   Si       0.62934    0.83329    0.88670    1.000
    N3786    N        0.60572    0.82076    0.92045    1.000
    Si3787   Si       0.60284    0.83089    0.96289    1.000
    N3788    N        0.63708    0.85855    0.97151    1.000
    N3789    N        0.57879    0.87610    0.98538    1.000
    N3790    N        0.62702    0.99027    0.89099    1.000
    N3791    N        0.61342    0.90878    0.93031    1.000
    N3792    N        0.59533    0.98726    0.96543    1.000
    Si3793   Si       0.61530    0.89715    0.97155    1.000
    N3794    N        0.65653    0.09847    0.01962    1.000
    Si3795   Si       0.65262    0.07207    0.05489    1.000
    N3796    N        0.67789    0.03777    0.06629    1.000
    N3797    N        0.64798    0.09925    0.08733    1.000
    Si3798   Si       0.68708    0.12843    0.02075    1.000
    Si3799   Si       0.67303    0.13301    0.09126    1.000
    N3800    N        0.67446    0.17060    0.01964    1.000
    N3801    N        0.65395    0.17046    0.09707    1.000
    N3802    N        0.66226    0.23859    0.03342    1.000
    N3803    N        0.68626    0.24544    0.10424    1.000
    Si3804   Si       0.69430    0.21090    0.02815    1.000
    N3805    N        0.68928    0.12584    0.20040    1.000
    Si3806   Si       0.66625    0.11878    0.16583    1.000
    N3807    N        0.64650    0.08165    0.15867    1.000
    N3808    N        0.69225    0.12554    0.12998    1.000
    N3809    N        0.66177    0.00758    0.16621    1.000
    N3810    N        0.65200    0.21117    0.15701    1.000
    N3811    N        0.66845    0.18616    0.22360    1.000
    Si3812   Si       0.66848    0.14492    0.23321    1.000
    Si3813   Si       0.67218    0.24818    0.14331    1.000
    N3814    N        0.64439    0.25035    0.21926    1.000
    Si3815   Si       0.64382    0.21263    0.19956    1.000
    N3816    N        0.66361    0.06391    0.29396    1.000
    N3817    N        0.67779    0.07258    0.35879    1.000
    Si3818   Si       0.69506    0.08790    0.27364    1.000
    Si3819   Si       0.69394    0.05076    0.32606    1.000
    N3820    N        0.68130    0.12924    0.27287    1.000
    N3821    N        0.65766    0.14535    0.33908    1.000
    Si3822   Si       0.66835    0.23992    0.30971    1.000
    N3823    N        0.68260    0.19996    0.30152    1.000
    Si3824   Si       0.66274    0.16118    0.29912    1.000
    N3825    N        0.64523    0.04573    0.47493    1.000
    Si3826   Si       0.66280    0.05456    0.43494    1.000
    N3827    N        0.68360    0.09272    0.42662    1.000
    Si3828   Si       0.66996    0.12511    0.45109    1.000
    N3829    N        0.69489    0.13640    0.48508    1.000
    N3830    N        0.69596    0.02695    0.42404    1.000
    Si3831   Si       0.65417    0.23249    0.38158    1.000
    Si3832   Si       0.65787    0.19585    0.44479    1.000
    N3833    N        0.65977    0.15681    0.42308    1.000
    N3834    N        0.68082    0.19942    0.37514    1.000
    N3835    N        0.65431    0.23355    0.42509    1.000
    Si3836   Si       0.67176    0.15817    0.37936    1.000
    Si3837   Si       0.67750    0.11755    0.58376    1.000
    Si3838   Si       0.67344    0.05730    0.61053    1.000
    N3839    N        0.66566    0.01366    0.60229    1.000
    N3840    N        0.64096    0.12989    0.56303    1.000
    N3841    N        0.66195    0.09837    0.62381    1.000
    N3842    N        0.67151    0.18896    0.53501    1.000
    Si3843   Si       0.64034    0.23154    0.60255    1.000
    N3844    N        0.65366    0.24831    0.56180    1.000
    Si3845   Si       0.68861    0.22523    0.55138    1.000
    Si3846   Si       0.63589    0.17315    0.55278    1.000
    N3847    N        0.66001    0.03120    0.70463    1.000
    N3848    N        0.67397    0.08739    0.68783    1.000
    Si3849   Si       0.68505    0.11411    0.65793    1.000
    Si3850   Si       0.63776    0.07287    0.70556    1.000
    N3851    N        0.67169    0.21697    0.62814    1.000
    N3852    N        0.63789    0.16042    0.70810    1.000
    Si3853   Si       0.64060    0.17922    0.63352    1.000
    Si3854   Si       0.67823    0.17379    0.68833    1.000
    Si3855   Si       0.68786    0.24272    0.66061    1.000
    N3856    N        0.69522    0.21441    0.69269    1.000
    N3857    N        0.67661    0.15935    0.64660    1.000
    Si3858   Si       0.63899    0.18685    0.74302    1.000
    N3859    N        0.67150    0.05282    0.77545    1.000
    N3860    N        0.68108    0.11958    0.77817    1.000
    Si3861   Si       0.64952    0.08924    0.77676    1.000
    Si3862   Si       0.68631    0.02991    0.86168    1.000
    N3863    N        0.66230    0.00985    0.83203    1.000
    Si3864   Si       0.66742    0.01111    0.78839    1.000
    Si3865   Si       0.68505    0.19166    0.83074    1.000
    N3866    N        0.68406    0.23237    0.84981    1.000
    N3867    N        0.67427    0.16263    0.86195    1.000
    N3868    N        0.64434    0.20269    0.81049    1.000
    Si3869   Si       0.64694    0.24188    0.83042    1.000
    N3870    N        0.68423    0.18439    0.74858    1.000
    N3871    N        0.65951    0.05862    0.87866    1.000
    N3872    N        0.65867    0.08824    0.94722    1.000
    Si3873   Si       0.63749    0.07914    0.90932    1.000
    Si3874   Si       0.64993    0.19370    0.91967    1.000
    N3875    N        0.66220    0.23394    0.91143    1.000
    N3876    N        0.68755    0.17414    0.92615    1.000
    N3877    N        0.63993    0.20358    0.96196    1.000
    Si3878   Si       0.63862    0.17988    0.99736    1.000
    Si3879   Si       0.66449    0.35431    0.03490    1.000
    N3880    N        0.67777    0.31919    0.01321    1.000
    Si3881   Si       0.67549    0.27596    0.01236    1.000
    N3882    N        0.65718    0.33842    0.07689    1.000
    Si3883   Si       0.69378    0.34585    0.10363    1.000
    N3884    N        0.65717    0.44142    0.04004    1.000
    Si3885   Si       0.65114    0.48117    0.05762    1.000
    N3886    N        0.68569    0.38375    0.12021    1.000
    N3887    N        0.64201    0.27794    0.14479    1.000
    N3888    N        0.67091    0.32695    0.18889    1.000
    Si3889   Si       0.67105    0.36364    0.21029    1.000
    N3890    N        0.64071    0.36820    0.24010    1.000
    Si3891   Si       0.63575    0.31420    0.16696    1.000
    Si3892   Si       0.64993    0.38758    0.14297    1.000
    N3893    N        0.65818    0.39623    0.18299    1.000
    N3894    N        0.68053    0.43675    0.23208    1.000
    Si3895   Si       0.64602    0.45879    0.13469    1.000
    N3896    N        0.64482    0.46755    0.18000    1.000
    Si3897   Si       0.67164    0.49385    0.20407    1.000
    Si3898   Si       0.64496    0.43196    0.20718    1.000
    N3899    N        0.68739    0.45010    0.13212    1.000
    Si3900   Si       0.64303    0.26834    0.25683    1.000
    N3901    N        0.67997    0.26699    0.27759    1.000
    Si3902   Si       0.66910    0.29803    0.36469    1.000
    N3903    N        0.66344    0.25850    0.34948    1.000
    N3904    N        0.67084    0.38667    0.32536    1.000
    Si3905   Si       0.68007    0.46435    0.26473    1.000
    N3906    N        0.65778    0.45285    0.30045    1.000
    Si3907   Si       0.64548    0.47595    0.33761    1.000
    N3908    N        0.67847    0.48368    0.36602    1.000
    Si3909   Si       0.64182    0.41656    0.31977    1.000
    N3910    N        0.66046    0.49742    0.24444    1.000
    N3911    N        0.68526    0.29250    0.40435    1.000
    N3912    N        0.66328    0.34315    0.44605    1.000
    N3913    N        0.68622    0.27713    0.47345    1.000
    Si3914   Si       0.66176    0.27213    0.43732    1.000
    Si3915   Si       0.67673    0.37344    0.47240    1.000
    N3916    N        0.63806    0.32501    0.38125    1.000
    N3917    N        0.63725    0.48450    0.41366    1.000
    Si3918   Si       0.65018    0.44727    0.39686    1.000
    N3919    N        0.69250    0.43764    0.40331    1.000
    N3920    N        0.64295    0.40152    0.47942    1.000
    Si3921   Si       0.66484    0.34230    0.57867    1.000
    N3922    N        0.68168    0.36940    0.51496    1.000
    N3923    N        0.66458    0.38585    0.58439    1.000
    Si3924   Si       0.64942    0.39773    0.52241    1.000
    Si3925   Si       0.64883    0.42552    0.58633    1.000
    N3926    N        0.68406    0.44028    0.60751    1.000
    N3927    N        0.64940    0.43632    0.54279    1.000
    N3928    N        0.65178    0.50616    0.51371    1.000
    N3929    N        0.66766    0.32636    0.62031    1.000
    Si3930   Si       0.64138    0.29815    0.64329    1.000
    N3931    N        0.64529    0.35392    0.72826    1.000
    N3932    N        0.65403    0.26710    0.67203    1.000
    N3933    N        0.68321    0.36473    0.67392    1.000
    Si3934   Si       0.64227    0.36210    0.68501    1.000
    N3935    N        0.68685    0.26345    0.73832    1.000
    N3936    N        0.68346    0.47770    0.67623    1.000
    N3937    N        0.67535    0.50329    0.73996    1.000
    N3938    N        0.65900    0.49916    0.62081    1.000
    Si3939   Si       0.64364    0.49386    0.66204    1.000
    Si3940   Si       0.67450    0.46498    0.71966    1.000
    N3941    N        0.63694    0.44344    0.72535    1.000
    Si3942   Si       0.65566    0.31013    0.81267    1.000
    N3943    N        0.64835    0.26836    0.79564    1.000
    Si3944   Si       0.67893    0.35975    0.75488    1.000
    Si3945   Si       0.64308    0.26452    0.75204    1.000
    N3946    N        0.64339    0.30514    0.85558    1.000
    N3947    N        0.66936    0.38520    0.79003    1.000
    Si3948   Si       0.67370    0.49619    0.78287    1.000
    N3949    N        0.65919    0.45658    0.78567    1.000
    Si3950   Si       0.68448    0.42397    0.80420    1.000
    N3951    N        0.68820    0.42076    0.84589    1.000
    Si3952   Si       0.68468    0.31585    0.87043    1.000
    N3953    N        0.67759    0.35211    0.89425    1.000
    N3954    N        0.66984    0.26484    0.97025    1.000
    Si3955   Si       0.69768    0.40840    0.96567    1.000
    Si3956   Si       0.69192    0.42437    0.88954    1.000
    N3957    N        0.64440    0.48020    0.92636    1.000
    N3958    N        0.65092    0.41468    0.90136    1.000
    Si3959   Si       0.68743    0.49111    0.92186    1.000
    N3960    N        0.65557    0.42393    0.96851    1.000
    Si3961   Si       0.67593    0.58311    0.02064    1.000
    Si3962   Si       0.66919    0.54826    0.08549    1.000
    N3963    N        0.67529    0.58828    0.06382    1.000
    N3964    N        0.66602    0.62477    0.00317    1.000
    N3965    N        0.68210    0.51322    0.06075    1.000
    N3966    N        0.64168    0.56079    0.00572    1.000
    Si3967   Si       0.69476    0.62162    0.08285    1.000
    Si3968   Si       0.67871    0.66262    0.02278    1.000
    N3969    N        0.66362    0.74405    0.10656    1.000
    N3970    N        0.64339    0.67980    0.11039    1.000
    Si3971   Si       0.69029    0.73928    0.99858    1.000
    N3972    N        0.63802    0.66841    0.03811    1.000
    Si3973   Si       0.69040    0.75657    0.07336    1.000
    N3974    N        0.67214    0.75674    0.03349    1.000
    N3975    N        0.68726    0.69503    0.99321    1.000
    N3976    N        0.69166    0.55792    0.12197    1.000
    N3977    N        0.67356    0.62141    0.12268    1.000
    Si3978   Si       0.68874    0.56122    0.21871    1.000
    Si3979   Si       0.67848    0.58970    0.15282    1.000
    N3980    N        0.66552    0.53485    0.19160    1.000
    N3981    N        0.66098    0.63328    0.23887    1.000
    Si3982   Si       0.67500    0.70499    0.12432    1.000
    N3983    N        0.69252    0.68902    0.23047    1.000
    N3984    N        0.64584    0.65590    0.17914    1.000
    N3985    N        0.68087    0.71638    0.16838    1.000
    Si3986   Si       0.68174    0.67852    0.19035    1.000
    Si3987   Si       0.68725    0.75525    0.18849    1.000
    Si3988   Si       0.64011    0.64528    0.13582    1.000
    N3989    N        0.68058    0.52661    0.29883    1.000
    Si3990   Si       0.65687    0.60826    0.27650    1.000
    Si3991   Si       0.67442    0.55241    0.33260    1.000
    Si3992   Si       0.65008    0.53035    0.26852    1.000
    N3993    N        0.64883    0.58801    0.32554    1.000
    N3994    N        0.66105    0.57024    0.25264    1.000
    Si3995   Si       0.65598    0.60484    0.36685    1.000
    N3996    N        0.69472    0.62763    0.29033    1.000
    Si3997   Si       0.66569    0.73413    0.31778    1.000
    N3998    N        0.65854    0.64777    0.36186    1.000
    N3999    N        0.64173    0.74631    0.28187    1.000
    N4000    N        0.67938    0.69527    0.31241    1.000
    Si4001   Si       0.69273    0.66957    0.34152    1.000
    N4002    N        0.65466    0.54265    0.37067    1.000
    Si4003   Si       0.64446    0.58366    0.42305    1.000
    N4004    N        0.64858    0.54301    0.43542    1.000
    N4005    N        0.67886    0.60245    0.40410    1.000
    Si4006   Si       0.66175    0.60965    0.48461    1.000
    Si4007   Si       0.65230    0.53865    0.48265    1.000
    Si4008   Si       0.66745    0.51523    0.40125    1.000
    Si4009   Si       0.69023    0.67140    0.47803    1.000
    N4010    N        0.68873    0.69907    0.37791    1.000
    Si4011   Si       0.69478    0.74839    0.46138    1.000
    N4012    N        0.63810    0.67980    0.42575    1.000
    N4013    N        0.67400    0.71222    0.47261    1.000
    Si4014   Si       0.64735    0.68234    0.38498    1.000
    N4015    N        0.64877    0.57579    0.50751    1.000
    N4016    N        0.64728    0.54361    0.57742    1.000
    Si4017   Si       0.65766    0.58456    0.61214    1.000
    Si4018   Si       0.68925    0.52477    0.59531    1.000
    N4019    N        0.69574    0.56255    0.61539    1.000
    N4020    N        0.67116    0.73831    0.53896    1.000
    Si4021   Si       0.65180    0.70518    0.56258    1.000
    N4022    N        0.64186    0.69604    0.60422    1.000
    N4023    N        0.66042    0.65031    0.50132    1.000
    N4024    N        0.69082    0.68424    0.56005    1.000
    N4025    N        0.64223    0.53180    0.68295    1.000
    N4026    N        0.67219    0.62127    0.63348    1.000
    N4027    N        0.64895    0.62392    0.70120    1.000
    Si4028   Si       0.66715    0.53918    0.71707    1.000
    Si4029   Si       0.68962    0.60839    0.70871    1.000
    Si4030   Si       0.67654    0.72809    0.74083    1.000
    N4031    N        0.64491    0.73754    0.71453    1.000
    N4032    N        0.66303    0.68490    0.67067    1.000
    Si4033   Si       0.67561    0.69908    0.63138    1.000
    Si4034   Si       0.64693    0.64269    0.66202    1.000
    N4035    N        0.68921    0.68605    0.73710    1.000
    N4036    N        0.66565    0.59495    0.81356    1.000
    Si4037   Si       0.66799    0.56470    0.78336    1.000
    N4038    N        0.65045    0.52754    0.80044    1.000
    Si4039   Si       0.69483    0.58991    0.84546    1.000
    N4040    N        0.64364    0.56272    0.74669    1.000
    N4041    N        0.67222    0.73645    0.85415    1.000
    N4042    N        0.66621    0.73735    0.78312    1.000
    N4043    N        0.68537    0.67881    0.80686    1.000
    N4044    N        0.64279    0.64917    0.77020    1.000
    Si4045   Si       0.68658    0.65430    0.76805    1.000
    Si4046   Si       0.69004    0.72341    0.81575    1.000
    Si4047   Si       0.64217    0.67085    0.80838    1.000
    N4048    N        0.66395    0.59125    0.87736    1.000
    N4049    N        0.65144    0.58401    0.94524    1.000
    Si4050   Si       0.66215    0.62525    0.95986    1.000
    Si4051   Si       0.65912    0.56376    0.90868    1.000
    N4052    N        0.68944    0.53236    0.90951    1.000
    N4053    N        0.66085    0.75647    0.97158    1.000
    Si4054   Si       0.63779    0.73525    0.93923    1.000
    Si4055   Si       0.69689    0.72619    0.89067    1.000
    N4056    N        0.66822    0.71047    0.92039    1.000
    Si4057   Si       0.69314    0.69177    0.95129    1.000
    N4058    N        0.67293    0.82060    0.01662    1.000
    N4059    N        0.65527    0.85802    0.07959    1.000
    Si4060   Si       0.68204    0.82924    0.05806    1.000
    Si4061   Si       0.64922    0.78387    0.00444    1.000
    N4062    N        0.63230    0.98311    0.08366    1.000
    N4063    N        0.68583    0.88853    0.00955    1.000
    N4064    N        0.66642    0.92883    0.05824    1.000
    Si4065   Si       0.66841    0.92745    0.01255    1.000
    N4066    N        0.64707    0.98919    0.01561    1.000
    Si4067   Si       0.66164    0.99796    0.05568    1.000
    Si4068   Si       0.63969    0.93922    0.09069    1.000
    Si4069   Si       0.66020    0.75878    0.24365    1.000
    N4070    N        0.68817    0.84422    0.21001    1.000
    Si4071   Si       0.67201    0.86090    0.17262    1.000
    N4072    N        0.65917    0.82761    0.14802    1.000
    N4073    N        0.64758    0.76612    0.20275    1.000
    N4074    N        0.65132    0.93331    0.13279    1.000
    Si4075   Si       0.69428    0.92726    0.14383    1.000
    Si4076   Si       0.64007    0.99093    0.20089    1.000
    N4077    N        0.67535    0.99160    0.23111    1.000
    N4078    N        0.67652    0.86405    0.27666    1.000
    N4079    N        0.65498    0.81948    0.33056    1.000
    Si4080   Si       0.65360    0.85968    0.31415    1.000
    N4081    N        0.66990    0.79786    0.26207    1.000
    Si4082   Si       0.65841    0.79281    0.36480    1.000
    Si4083   Si       0.64557    0.78734    0.30050    1.000
    Si4084   Si       0.66556    0.83640    0.24598    1.000
    N4085    N        0.64069    0.75855    0.34707    1.000
    N4086    N        0.66616    0.88594    0.34603    1.000
    Si4087   Si       0.66628    0.96773    0.26634    1.000
    N4088    N        0.66781    0.97404    0.30991    1.000
    N4089    N        0.68860    0.93214    0.25492    1.000
    N4090    N        0.67695    0.84331    0.41886    1.000
    N4091    N        0.67386    0.86190    0.48377    1.000
    Si4092   Si       0.65238    0.81228    0.43707    1.000
    N4093    N        0.67717    0.78819    0.46361    1.000
    Si4094   Si       0.68679    0.87636    0.44523    1.000
    Si4095   Si       0.68931    0.82068    0.49328    1.000
    N4096    N        0.69461    0.93213    0.49043    1.000
    N4097    N        0.64377    0.97368    0.46465    1.000
    Si4098   Si       0.67322    0.94275    0.45345    1.000
    N4099    N        0.65612    0.90726    0.43584    1.000
    Si4100   Si       0.65529    0.00737    0.48946    1.000
    Si4101   Si       0.67602    0.84233    0.56348    1.000
    N4102    N        0.67121    0.81159    0.53111    1.000
    Si4103   Si       0.65066    0.77610    0.54471    1.000
    N4104    N        0.65464    0.77623    0.58967    1.000
    N4105    N        0.64882    0.83856    0.59639    1.000
    Si4106   Si       0.69025    0.77219    0.61491    1.000
    N4107    N        0.67085    0.88392    0.55361    1.000
    Si4108   Si       0.67077    0.98956    0.56530    1.000
    Si4109   Si       0.67859    0.89456    0.51308    1.000
    N4110    N        0.64705    0.95340    0.57813    1.000
    Si4111   Si       0.63886    0.91531    0.55539    1.000
    N4112    N        0.64671    0.00513    0.53213    1.000
    N4113    N        0.65007    0.85472    0.67640    1.000
    N4114    N        0.67661    0.79164    0.65301    1.000
    Si4115   Si       0.67847    0.87970    0.65147    1.000
    Si4116   Si       0.64301    0.81056    0.67493    1.000
    N4117    N        0.64080    0.87295    0.74140    1.000
    Si4118   Si       0.64625    0.94234    0.62329    1.000
    N4119    N        0.67072    0.96191    0.65303    1.000
    N4120    N        0.65166    0.90144    0.62375    1.000
    Si4121   Si       0.68972    0.99792    0.63728    1.000
    N4122    N        0.66040    0.93560    0.72130    1.000
    Si4123   Si       0.69031    0.94658    0.69050    1.000
    Si4124   Si       0.67921    0.82609    0.80587    1.000
    N4125    N        0.67671    0.86797    0.81737    1.000
    N4126    N        0.68916    0.82016    0.76238    1.000
    Si4127   Si       0.64848    0.83147    0.75213    1.000
    Si4128   Si       0.64055    0.76234    0.86570    1.000
    N4129    N        0.63584    0.82213    0.79321    1.000
    Si4130   Si       0.66044    0.90869    0.82770    1.000
    Si4131   Si       0.66265    0.90668    0.75656    1.000
    N4132    N        0.64377    0.92473    0.79082    1.000
    N4133    N        0.65846    0.80004    0.87549    1.000
    Si4134   Si       0.67531    0.85269    0.98837    1.000
    N4135    N        0.65666    0.86744    0.89858    1.000
    Si4136   Si       0.64180    0.90720    0.89922    1.000
    Si4137   Si       0.66586    0.97916    0.90737    1.000
    Si4138   Si       0.67619    0.99496    0.98379    1.000
    N4139    N        0.67330    0.93707    0.90434    1.000
    N4140    N        0.65579    0.99819    0.94476    1.000
    Si4141   Si       0.71352    0.01891    0.08308    1.000
    Si4142   Si       0.74261    0.11827    0.07441    1.000
    N4143    N        0.70321    0.12126    0.05975    1.000
    N4144    N        0.74388    0.08693    0.10894    1.000
    Si4145   Si       0.72635    0.23721    0.09286    1.000
    N4146    N        0.72405    0.21141    0.05781    1.000
    N4147    N        0.71489    0.01895    0.12659    1.000
    N4148    N        0.72348    0.07894    0.16867    1.000
    N4149    N        0.70358    0.06874    0.23497    1.000
    Si4150   Si       0.73116    0.11368    0.14155    1.000
    Si4151   Si       0.70729    0.02528    0.23098    1.000
    Si4152   Si       0.73936    0.05260    0.14003    1.000
    Si4153   Si       0.72187    0.09607    0.20815    1.000
    N4154    N        0.72589    0.01078    0.19519    1.000
    N4155    N        0.74593    0.21515    0.12495    1.000
    Si4156   Si       0.73933    0.23361    0.16464    1.000
    N4157    N        0.73226    0.20148    0.19243    1.000
    N4158    N        0.74671    0.24841    0.24148    1.000
    N4159    N        0.72453    0.07486    0.30467    1.000
    N4160    N        0.70979    0.01553    0.34675    1.000
    N4161    N        0.72810    0.01509    0.26830    1.000
    Si4162   Si       0.72544    0.19994    0.30597    1.000
    N4163    N        0.72842    0.24274    0.30920    1.000
    N4164    N        0.74778    0.17033    0.32896    1.000
    Si4165   Si       0.74652    0.14965    0.36616    1.000
    N4166    N        0.74619    0.18509    0.26875    1.000
    Si4167   Si       0.72106    0.02572    0.38785    1.000
    N4168    N        0.73680    0.06615    0.38848    1.000
    Si4169   Si       0.70362    0.09392    0.38910    1.000
    N4170    N        0.72279    0.07418    0.48706    1.000
    N4171    N        0.70837    0.13516    0.38139    1.000
    N4172    N        0.75143    0.01415    0.47004    1.000
    Si4173   Si       0.73159    0.11568    0.49554    1.000
    Si4174   Si       0.70803    0.23921    0.48157    1.000
    N4175    N        0.69120    0.20320    0.47176    1.000
    N4176    N        0.74387    0.25345    0.46091    1.000
    Si4177   Si       0.73375    0.07508    0.55903    1.000
    N4178    N        0.74206    0.11247    0.53858    1.000
    N4179    N        0.74398    0.03776    0.54155    1.000
    Si4180   Si       0.72763    0.03472    0.50054    1.000
    N4181    N        0.69140    0.07680    0.57537    1.000
    Si4182   Si       0.69750    0.17509    0.50480    1.000
    Si4183   Si       0.73997    0.15203    0.55958    1.000
    N4184    N        0.71660    0.24222    0.52388    1.000
    Si4185   Si       0.73630    0.24498    0.60587    1.000
    N4186    N        0.71556    0.21248    0.58457    1.000
    N4187    N        0.73789    0.17326    0.52278    1.000
    N4188    N        0.70510    0.14790    0.58675    1.000
    Si4189   Si       0.70437    0.18224    0.61685    1.000
    N4190    N        0.72901    0.10667    0.65385    1.000
    N4191    N        0.70073    0.04732    0.64231    1.000
    N4192    N        0.72225    0.05345    0.72179    1.000
    Si4193   Si       0.73794    0.07034    0.63378    1.000
    Si4194   Si       0.69680    0.04424    0.68719    1.000
    Si4195   Si       0.73986    0.14450    0.66964    1.000
    N4196    N        0.70674    0.14509    0.70069    1.000
    Si4197   Si       0.70316    0.22220    0.73546    1.000
    N4198    N        0.74276    0.17480    0.63724    1.000
    N4199    N        0.72462    0.05281    0.85376    1.000
    N4200    N        0.72751    0.12020    0.83593    1.000
    N4201    N        0.73581    0.06986    0.78961    1.000
    Si4202   Si       0.72143    0.11168    0.79442    1.000
    Si4203   Si       0.71330    0.04529    0.76211    1.000
    Si4204   Si       0.72672    0.09260    0.86946    1.000
    N4205    N        0.73993    0.13102    0.76053    1.000
    N4206    N        0.72449    0.18395    0.81554    1.000
    N4207    N        0.74098    0.22639    0.75717    1.000
    Si4208   Si       0.74582    0.15826    0.84339    1.000
    Si4209   Si       0.75435    0.19409    0.78288    1.000
    Si4210   Si       0.70010    0.14351    0.74563    1.000
    N4211    N        0.74515    0.23891    0.86918    1.000
    Si4212   Si       0.73492    0.03284    0.96827    1.000
    N4213    N        0.73552    0.06693    0.94118    1.000
    Si4214   Si       0.70107    0.09589    0.94558    1.000
    N4215    N        0.70330    0.10983    0.90223    1.000
    N4216    N        0.71171    0.11724    0.98432    1.000
    N4217    N        0.69776    0.03073    0.99099    1.000
    N4218    N        0.74365    0.16622    0.88457    1.000
    Si4219   Si       0.71771    0.19490    0.95003    1.000
    N4220    N        0.72647    0.23494    0.93067    1.000
    Si4221   Si       0.70276    0.15101    0.89210    1.000
    Si4222   Si       0.70151    0.24405    0.88955    1.000
    N4223    N        0.75003    0.16485    0.95562    1.000
    N4224    N        0.71496    0.21274    0.98843    1.000
    Si4225   Si       0.71593    0.25384    0.97134    1.000
    Si4226   Si       0.75229    0.13839    0.98935    1.000
    Si4227   Si       0.73877    0.36611    0.04565    1.000
    N4228    N        0.71789    0.27050    0.01469    1.000
    N4229    N        0.74451    0.33111    0.02133    1.000
    N4230    N        0.74427    0.27900    0.08225    1.000
    N4231    N        0.73478    0.34523    0.08315    1.000
    Si4232   Si       0.74906    0.31246    0.10728    1.000
    Si4233   Si       0.74973    0.29104    0.03958    1.000
    N4234    N        0.69837    0.38126    0.04003    1.000
    N4235    N        0.72193    0.43553    0.07003    1.000
    N4236    N        0.74375    0.49665    0.01811    1.000
    Si4237   Si       0.70543    0.41968    0.10697    1.000
    Si4238   Si       0.69829    0.42517    0.03676    1.000
    N4239    N        0.74819    0.40772    0.11682    1.000
    N4240    N        0.73910    0.31008    0.20037    1.000
    Si4241   Si       0.70451    0.30350    0.17253    1.000
    N4242    N        0.71261    0.37235    0.21914    1.000
    N4243    N        0.71237    0.31947    0.13284    1.000
    Si4244   Si       0.74765    0.35147    0.20740    1.000
    N4245    N        0.70559    0.26114    0.16794    1.000
    Si4246   Si       0.72014    0.46277    0.15922    1.000
    N4247    N        0.71180    0.49218    0.19052    1.000
    N4248    N        0.73114    0.42725    0.18230    1.000
    Si4249   Si       0.71698    0.41555    0.22137    1.000
    Si4250   Si       0.73674    0.31880    0.32569    1.000
    N4251    N        0.74055    0.36149    0.33345    1.000
    N4252    N        0.74780    0.30210    0.28535    1.000
    Si4253   Si       0.72295    0.26892    0.27490    1.000
    Si4254   Si       0.69725    0.36135    0.34642    1.000
    N4255    N        0.69415    0.31864    0.33614    1.000
    N4256    N        0.71887    0.47867    0.27555    1.000
    N4257    N        0.74831    0.42131    0.25194    1.000
    Si4258   Si       0.72657    0.29547    0.47248    1.000
    N4259    N        0.73139    0.32463    0.44060    1.000
    N4260    N        0.69703    0.36488    0.38948    1.000
    Si4261   Si       0.69443    0.33233    0.41865    1.000
    Si4262   Si       0.71114    0.40064    0.41220    1.000
    Si4263   Si       0.71440    0.47419    0.38922    1.000
    N4264    N        0.71050    0.38980    0.45326    1.000
    Si4265   Si       0.75026    0.39302    0.47366    1.000
    N4266    N        0.75097    0.40521    0.39362    1.000
    N4267    N        0.70902    0.34080    0.57079    1.000
    Si4268   Si       0.71955    0.36872    0.53799    1.000
    N4269    N        0.73799    0.27888    0.57920    1.000
    Si4270   Si       0.74148    0.32080    0.58790    1.000
    N4271    N        0.74874    0.29998    0.50929    1.000
    Si4272   Si       0.74951    0.26738    0.53839    1.000
    N4273    N        0.75283    0.36955    0.51075    1.000
    N4274    N        0.72516    0.40870    0.55730    1.000
    Si4275   Si       0.70414    0.40502    0.59447    1.000
    N4276    N        0.72450    0.50263    0.61503    1.000
    N4277    N        0.71179    0.46772    0.49937    1.000
    Si4278   Si       0.69542    0.50433    0.51422    1.000
    N4279    N        0.73418    0.32351    0.63244    1.000
    Si4280   Si       0.71419    0.29620    0.73548    1.000
    Si4281   Si       0.74124    0.29532    0.66216    1.000
    Si4282   Si       0.71918    0.35861    0.69592    1.000
    N4283    N        0.71829    0.31517    0.69631    1.000
    Si4284   Si       0.70192    0.35039    0.63516    1.000
    N4285    N        0.72372    0.26013    0.64509    1.000
    N4286    N        0.71127    0.37873    0.73293    1.000
    Si4287   Si       0.72741    0.47191    0.68991    1.000
    N4288    N        0.72472    0.38674    0.62624    1.000
    N4289    N        0.73842    0.45105    0.65423    1.000
    N4290    N        0.71562    0.44812    0.72258    1.000
    Si4291   Si       0.69577    0.47382    0.63255    1.000
    Si4292   Si       0.72495    0.31447    0.79948    1.000
    N4293    N        0.74415    0.27729    0.80508    1.000
    N4294    N        0.69782    0.32293    0.76710    1.000
    N4295    N        0.69684    0.32203    0.83012    1.000
    N4296    N        0.72416    0.42710    0.78488    1.000
    N4297    N        0.71411    0.49574    0.79965    1.000
    Si4298   Si       0.74085    0.46169    0.80230    1.000
    Si4299   Si       0.73376    0.41483    0.74373    1.000
    N4300    N        0.74740    0.34076    0.91046    1.000
    Si4301   Si       0.71542    0.32662    0.98838    1.000
    Si4302   Si       0.74164    0.29826    0.91978    1.000
    N4303    N        0.72768    0.29575    0.96011    1.000
    Si4304   Si       0.71004    0.36108    0.92083    1.000
    N4305    N        0.70657    0.28670    0.89193    1.000
    N4306    N        0.70109    0.36225    0.96708    1.000
    N4307    N        0.70665    0.46498    0.89380    1.000
    Si4308   Si       0.74730    0.46792    0.88006    1.000
    N4309    N        0.71019    0.48736    0.95862    1.000
    Si4310   Si       0.73543    0.46784    0.98836    1.000
    N4311    N        0.71855    0.40626    0.92507    1.000
    N4312    N        0.71341    0.43208    0.99792    1.000
    N4313    N        0.73460    0.60666    0.09322    1.000
    Si4314   Si       0.73238    0.56576    0.10762    1.000
    N4315    N        0.74257    0.53024    0.08079    1.000
    N4316    N        0.71634    0.56205    0.01561    1.000
    Si4317   Si       0.72150    0.52434    0.04303    1.000
    Si4318   Si       0.75147    0.58342    0.00391    1.000
    Si4319   Si       0.72742    0.68747    0.08065    1.000
    N4320    N        0.72525    0.73024    0.07224    1.000
    N4321    N        0.70235    0.65679    0.05774    1.000
    Si4322   Si       0.74269    0.51449    0.21177    1.000
    Si4323   Si       0.73129    0.62279    0.20116    1.000
    N4324    N        0.70225    0.59269    0.18876    1.000
    N4325    N        0.72019    0.53997    0.24005    1.000
    N4326    N        0.71827    0.65845    0.18046    1.000
    Si4327   Si       0.72722    0.71530    0.22979    1.000
    N4328    N        0.73667    0.63537    0.24193    1.000
    N4329    N        0.71333    0.68442    0.12018    1.000
    N4330    N        0.74979    0.71804    0.19105    1.000
    Si4331   Si       0.74205    0.68830    0.15570    1.000
    N4332    N        0.70459    0.75422    0.23139    1.000
    N4333    N        0.71137    0.57475    0.33818    1.000
    Si4334   Si       0.72672    0.61222    0.31767    1.000
    Si4335   Si       0.71880    0.52191    0.28022    1.000
    Si4336   Si       0.75274    0.55920    0.33428    1.000
    N4337    N        0.72724    0.64732    0.34335    1.000
    N4338    N        0.74925    0.69739    0.26149    1.000
    Si4339   Si       0.69777    0.65073    0.25350    1.000
    Si4340   Si       0.71016    0.62313    0.42669    1.000
    N4341    N        0.74563    0.61844    0.40029    1.000
    N4342    N        0.74463    0.56433    0.44135    1.000
    N4343    N        0.70105    0.60950    0.46878    1.000
    Si4344   Si       0.74081    0.59359    0.47667    1.000
    Si4345   Si       0.72625    0.52678    0.45037    1.000
    N4346    N        0.69853    0.53529    0.48376    1.000
    N4347    N        0.70678    0.50701    0.41606    1.000
    N4348    N        0.70827    0.66660    0.43653    1.000
    N4349    N        0.71688    0.74218    0.42371    1.000
    N4350    N        0.72444    0.74495    0.49449    1.000
    Si4351   Si       0.71825    0.69977    0.41008    1.000
    N4352    N        0.72201    0.61022    0.54483    1.000
    Si4353   Si       0.74527    0.50926    0.56993    1.000
    Si4354   Si       0.73851    0.57063    0.61706    1.000
    N4355    N        0.74594    0.61426    0.62056    1.000
    N4356    N        0.70514    0.51044    0.55623    1.000
    N4357    N        0.75373    0.55318    0.58022    1.000
    N4358    N        0.71014    0.67277    0.62359    1.000
    N4359    N        0.75199    0.66350    0.57080    1.000
    Si4360   Si       0.70797    0.71781    0.52663    1.000
    Si4361   Si       0.72208    0.69922    0.59007    1.000
    N4362    N        0.74336    0.72473    0.55650    1.000
    N4363    N        0.72316    0.67734    0.50629    1.000
    Si4364   Si       0.71756    0.65240    0.54511    1.000
    N4365    N        0.70198    0.73090    0.61444    1.000
    N4366    N        0.74950    0.51076    0.69569    1.000
    N4367    N        0.69912    0.56542    0.70269    1.000
    Si4368   Si       0.74082    0.55482    0.69518    1.000
    N4369    N        0.70096    0.61838    0.74853    1.000
    Si4370   Si       0.71406    0.63382    0.64079    1.000
    N4371    N        0.71117    0.75342    0.73219    1.000
    N4372    N        0.73392    0.70293    0.69070    1.000
    Si4373   Si       0.70008    0.67773    0.69550    1.000
    Si4374   Si       0.74885    0.72957    0.72407    1.000
    N4375    N        0.71305    0.63735    0.68463    1.000
    Si4376   Si       0.72865    0.53451    0.80785    1.000
    N4377    N        0.71516    0.55270    0.84465    1.000
    N4378    N        0.70988    0.55719    0.77330    1.000
    Si4379   Si       0.73453    0.58931    0.75631    1.000
    N4380    N        0.71917    0.62623    0.85138    1.000
    Si4381   Si       0.71562    0.66453    0.83572    1.000
    N4382    N        0.72947    0.73858    0.80604    1.000
    N4383    N        0.75419    0.67606    0.81835    1.000
    Si4384   Si       0.72469    0.54371    0.88708    1.000
    N4385    N        0.74403    0.58107    0.89488    1.000
    N4386    N        0.75005    0.60260    0.96375    1.000
    Si4387   Si       0.75343    0.61964    0.87668    1.000
    N4388    N        0.75077    0.64572    0.91027    1.000
    N4389    N        0.71418    0.69049    0.87193    1.000
    Si4390   Si       0.73722    0.64192    0.95245    1.000
    Si4391   Si       0.74545    0.68651    0.90173    1.000
    N4392    N        0.73269    0.74432    0.99281    1.000
    N4393    N        0.73146    0.70682    0.93643    1.000
    N4394    N        0.69590    0.64831    0.94764    1.000
    N4395    N        0.72158    0.84778    0.05990    1.000
    Si4396   Si       0.73832    0.81833    0.08694    1.000
    N4397    N        0.69742    0.79949    0.08724    1.000
    Si4398   Si       0.72225    0.88035    0.03189    1.000
    N4399    N        0.74950    0.86182    0.00117    1.000
    N4400    N        0.70163    0.98215    0.06456    1.000
    Si4401   Si       0.70698    0.94004    0.06950    1.000
    N4402    N        0.73588    0.91903    0.04807    1.000
    N4403    N        0.71766    0.93821    0.11136    1.000
    N4404    N        0.73599    0.83071    0.12859    1.000
    Si4405   Si       0.73021    0.84809    0.22323    1.000
    Si4406   Si       0.74293    0.86974    0.14754    1.000
    N4407    N        0.70877    0.78610    0.16642    1.000
    Si4408   Si       0.74813    0.80699    0.16780    1.000
    Si4409   Si       0.69476    0.80902    0.13124    1.000
    N4410    N        0.75186    0.84821    0.18536    1.000
    N4411    N        0.70244    0.88590    0.15425    1.000
    Si4412   Si       0.70147    0.99617    0.15998    1.000
    N4413    N        0.69921    0.95476    0.17681    1.000
    N4414    N        0.73563    0.88444    0.24396    1.000
    Si4415   Si       0.70243    0.95550    0.21838    1.000
    N4416    N        0.74564    0.95312    0.23249    1.000
    Si4417   Si       0.72683    0.78387    0.33746    1.000
    Si4418   Si       0.71401    0.77818    0.26896    1.000
    N4419    N        0.73766    0.81341    0.24970    1.000
    N4420    N        0.74585    0.81984    0.32127    1.000
    N4421    N        0.75366    0.76311    0.28487    1.000
    N4422    N        0.75141    0.76173    0.36505    1.000
    N4423    N        0.69852    0.76395    0.31064    1.000
    N4424    N        0.69992    0.79569    0.37336    1.000
    N4425    N        0.73020    0.89336    0.31243    1.000
    Si4426   Si       0.70435    0.97415    0.33183    1.000
    N4427    N        0.70826    0.94263    0.36247    1.000
    N4428    N        0.73792    0.96005    0.30767    1.000
    Si4429   Si       0.70866    0.90004    0.35006    1.000
    Si4430   Si       0.70515    0.89660    0.27436    1.000
    Si4431   Si       0.75029    0.97534    0.26924    1.000
    N4432    N        0.72478    0.87338    0.38118    1.000
    Si4433   Si       0.71068    0.83604    0.39362    1.000
    N4434    N        0.73944    0.81312    0.42158    1.000
    Si4435   Si       0.72909    0.77585    0.40102    1.000
    N4436    N        0.73196    0.82574    0.49363    1.000
    N4437    N        0.72898    0.88877    0.44564    1.000
    Si4438   Si       0.73205    0.95561    0.39856    1.000
    Si4439   Si       0.71760    0.99798    0.45031    1.000
    N4440    N        0.69823    0.00019    0.49144    1.000
    Si4441   Si       0.73798    0.91088    0.48362    1.000
    N4442    N        0.74920    0.99601    0.40232    1.000
    N4443    N        0.70624    0.95928    0.43227    1.000
    N4444    N        0.72108    0.83869    0.56613    1.000
    Si4445   Si       0.73504    0.83866    0.60626    1.000
    Si4446   Si       0.74102    0.84895    0.53070    1.000
    N4447    N        0.72451    0.88698    0.51782    1.000
    Si4448   Si       0.73706    0.96040    0.58481    1.000
    Si4449   Si       0.71504    0.96641    0.51317    1.000
    N4450    N        0.73910    0.91882    0.59861    1.000
    N4451    N        0.70762    0.97084    0.55540    1.000
    N4452    N        0.72911    0.98579    0.61914    1.000
    N4453    N        0.75351    0.95200    0.50284    1.000
    N4454    N        0.73028    0.79558    0.62043    1.000
    Si4455   Si       0.71367    0.81274    0.65894    1.000
    N4456    N        0.71071    0.85248    0.63766    1.000
    N4457    N        0.71913    0.81340    0.70060    1.000
    Si4458   Si       0.71699    0.79677    0.73871    1.000
    Si4459   Si       0.74347    0.98533    0.71282    1.000
    Si4460   Si       0.74935    0.00225    0.65376    1.000
    N4461    N        0.71329    0.00085    0.68154    1.000
    N4462    N        0.72826    0.94409    0.71535    1.000
    Si4463   Si       0.74048    0.90579    0.69089    1.000
    N4464    N        0.70090    0.90632    0.67548    1.000
    Si4465   Si       0.74008    0.77966    0.80792    1.000
    N4466    N        0.70886    0.80454    0.82601    1.000
    N4467    N        0.75028    0.79362    0.76779    1.000
    Si4468   Si       0.70075    0.79733    0.86950    1.000
    Si4469   Si       0.71471    0.89228    0.81401    1.000
    N4470    N        0.70339    0.90438    0.77210    1.000
    N4471    N        0.69872    0.92270    0.84180    1.000
    Si4472   Si       0.73693    0.92063    0.75203    1.000
    Si4473   Si       0.75305    0.99116    0.77892    1.000
    N4474    N        0.70996    0.00275    0.77543    1.000
    N4475    N        0.72054    0.76454    0.89236    1.000
    Si4476   Si       0.74275    0.84057    0.96229    1.000
    N4477    N        0.71792    0.82549    0.89436    1.000
    Si4478   Si       0.74812    0.79433    0.91014    1.000
    N4479    N        0.70147    0.84928    0.95380    1.000
    Si4480   Si       0.69721    0.85998    0.91134    1.000
    N4481    N        0.75027    0.79969    0.95367    1.000
    N4482    N        0.73783    0.99327    0.95257    1.000
    N4483    N        0.70010    0.00137    0.89232    1.000
    Si4484   Si       0.73986    0.99704    0.90862    1.000
    Si4485   Si       0.74012    0.95720    0.98032    1.000
    N4486    N        0.69643    0.95623    0.99189    1.000
    Si4487   Si       0.71128    0.93119    0.88435    1.000
    N4488    N        0.72391    0.89366    0.90522    1.000
    N4489    N        0.74769    0.95463    0.89723    1.000
    Si4490   Si       0.77475    0.06377    0.08145    1.000
    N4491    N        0.77648    0.09919    0.05631    1.000
    Si4492   Si       0.77239    0.01560    0.03036    1.000
    Si4493   Si       0.79552    0.12652    0.03182    1.000
    N4494    N        0.75154    0.03141    0.06596    1.000
    N4495    N        0.76524    0.04288    0.99774    1.000
    N4496    N        0.79296    0.21199    0.06165    1.000
    Si4497   Si       0.80467    0.23681    0.02976    1.000
    N4498    N        0.76315    0.15860    0.02759    1.000
    Si4499   Si       0.75826    0.18438    0.06047    1.000
    N4500    N        0.75162    0.15686    0.09194    1.000
    N4501    N        0.77399    0.03350    0.15285    1.000
    N4502    N        0.76048    0.11402    0.21884    1.000
    Si4503   Si       0.80615    0.01935    0.24692    1.000
    Si4504   Si       0.76410    0.17632    0.12825    1.000
    N4505    N        0.78942    0.18107    0.21889    1.000
    Si4506   Si       0.75433    0.20543    0.22889    1.000
    Si4507   Si       0.77985    0.14584    0.19387    1.000
    N4508    N        0.77718    0.25244    0.17939    1.000
    N4509    N        0.80675    0.18165    0.12233    1.000
    N4510    N        0.75648    0.14492    0.15644    1.000
    N4511    N        0.78575    0.05899    0.31881    1.000
    N4512    N        0.76911    0.11395    0.35570    1.000
    N4513    N        0.77967    0.12104    0.28591    1.000
    Si4514   Si       0.76234    0.09339    0.31714    1.000
    Si4515   Si       0.76042    0.03699    0.28834    1.000
    N4516    N        0.78131    0.05668    0.25218    1.000
    Si4517   Si       0.78903    0.09942    0.24892    1.000
    Si4518   Si       0.77583    0.16322    0.29416    1.000
    N4519    N        0.77352    0.22900    0.36123    1.000
    Si4520   Si       0.76432    0.25580    0.32942    1.000
    N4521    N        0.81153    0.18739    0.29874    1.000
    Si4522   Si       0.77695    0.08076    0.38510    1.000
    N4523    N        0.79412    0.10148    0.42155    1.000
    N4524    N        0.80432    0.04713    0.38848    1.000
    Si4525   Si       0.78827    0.01155    0.41362    1.000
    N4526    N        0.80763    0.03150    0.44901    1.000
    N4527    N        0.79653    0.20393    0.49071    1.000
    Si4528   Si       0.78654    0.20087    0.38927    1.000
    Si4529   Si       0.78325    0.14032    0.43596    1.000
    N4530    N        0.76479    0.16431    0.40183    1.000
    N4531    N        0.76379    0.13905    0.47336    1.000
    N4532    N        0.79803    0.22498    0.42372    1.000
    Si4533   Si       0.80423    0.07343    0.59654    1.000
    N4534    N        0.75978    0.07334    0.59508    1.000
    Si4535   Si       0.77834    0.01554    0.55608    1.000
    N4536    N        0.80434    0.01248    0.51929    1.000
    N4537    N        0.77883    0.16394    0.57540    1.000
    N4538    N        0.77715    0.22793    0.60732    1.000
    Si4539   Si       0.77913    0.16639    0.50459    1.000
    Si4540   Si       0.77944    0.18450    0.61529    1.000
    Si4541   Si       0.80300    0.25316    0.58742    1.000
    N4542    N        0.79103    0.25672    0.54409    1.000
    Si4543   Si       0.80889    0.04309    0.66241    1.000
    N4544    N        0.76607    0.04212    0.65467    1.000
    Si4545   Si       0.80900    0.02172    0.73225    1.000
    N4546    N        0.80823    0.10672    0.75121    1.000
    N4547    N        0.77584    0.14087    0.69656    1.000
    Si4548   Si       0.77741    0.13479    0.74126    1.000
    N4549    N        0.79502    0.08158    0.82030    1.000
    N4550    N        0.77142    0.01508    0.81163    1.000
    Si4551   Si       0.79656    0.11258    0.85046    1.000
    Si4552   Si       0.75766    0.05392    0.82309    1.000
    N4553    N        0.78030    0.22056    0.80716    1.000
    N4554    N        0.78767    0.15222    0.83342    1.000
    N4555    N        0.78347    0.17562    0.75733    1.000
    Si4556   Si       0.76574    0.25128    0.83467    1.000
    Si4557   Si       0.81078    0.18796    0.81579    1.000
    N4558    N        0.80274    0.07713    0.94295    1.000
    N4559    N        0.78976    0.11305    0.99074    1.000
    N4560    N        0.77745    0.02362    0.90524    1.000
    Si4561   Si       0.77092    0.06638    0.91424    1.000
    Si4562   Si       0.79530    0.06866    0.98440    1.000
    N4563    N        0.76871    0.09323    0.87987    1.000
    Si4564   Si       0.76488    0.23856    0.90999    1.000
    N4565    N        0.78921    0.20563    0.92251    1.000
    Si4566   Si       0.77024    0.16618    0.91730    1.000
    N4567    N        0.80114    0.21955    0.99109    1.000
    N4568    N        0.80607    0.14268    0.91546    1.000
    N4569    N        0.79012    0.27762    0.02965    1.000
    N4570    N        0.77118    0.39420    0.04890    1.000
    N4571    N        0.79459    0.44778    0.08841    1.000
    Si4572   Si       0.76197    0.42246    0.07882    1.000
    Si4573   Si       0.80854    0.40069    0.02778    1.000
    N4574    N        0.80799    0.50627    0.04996    1.000
    N4575    N        0.78812    0.31266    0.12717    1.000
    Si4576   Si       0.76529    0.27636    0.21240    1.000
    N4577    N        0.80105    0.29391    0.23406    1.000
    Si4578   Si       0.79792    0.34909    0.14969    1.000
    N4579    N        0.77842    0.35635    0.23849    1.000
    N4580    N        0.76616    0.36980    0.17223    1.000
    Si4581   Si       0.80102    0.45206    0.20383    1.000
    N4582    N        0.80777    0.50491    0.12373    1.000
    Si4583   Si       0.80108    0.46048    0.12958    1.000
    N4584    N        0.77172    0.47963    0.22630    1.000
    N4585    N        0.79805    0.43148    0.16417    1.000
    Si4586   Si       0.76070    0.41004    0.15744    1.000
    N4587    N        0.75461    0.47531    0.13726    1.000
    Si4588   Si       0.78930    0.29519    0.27683    1.000
    N4589    N        0.76578    0.29458    0.34786    1.000
    Si4590   Si       0.77009    0.38011    0.36183    1.000
    N4591    N        0.79418    0.25585    0.29550    1.000
    N4592    N        0.78645    0.46413    0.29481    1.000
    N4593    N        0.79348    0.41415    0.34886    1.000
    Si4594   Si       0.81031    0.43294    0.31331    1.000
    N4595    N        0.80779    0.39889    0.28520    1.000
    Si4596   Si       0.75641    0.46055    0.26473    1.000
    Si4597   Si       0.78536    0.39746    0.24884    1.000
    Si4598   Si       0.79274    0.50763    0.30220    1.000
    Si4599   Si       0.79432    0.30627    0.37700    1.000
    N4600    N        0.78038    0.36867    0.45132    1.000
    Si4601   Si       0.77062    0.33656    0.42569    1.000
    N4602    N        0.78444    0.34711    0.38486    1.000
    N4603    N        0.78488    0.29520    0.41770    1.000
    Si4604   Si       0.78243    0.26061    0.44230    1.000
    Si4605   Si       0.75176    0.46520    0.48814    1.000
    N4606    N        0.76253    0.43300    0.46132    1.000
    Si4607   Si       0.80017    0.50484    0.45003    1.000
    N4608    N        0.75845    0.50329    0.46774    1.000
    Si4609   Si       0.78264    0.43565    0.38719    1.000
    N4610    N        0.75977    0.47391    0.38317    1.000
    Si4611   Si       0.80585    0.43109    0.45372    1.000
    N4612    N        0.77716    0.33611    0.56547    1.000
    Si4613   Si       0.77238    0.33274    0.52322    1.000
    N4614    N        0.81110    0.33533    0.50578    1.000
    N4615    N        0.81003    0.29301    0.60731    1.000
    Si4616   Si       0.79803    0.47941    0.54919    1.000
    N4617    N        0.77441    0.44872    0.52266    1.000
    N4618    N        0.76588    0.46787    0.58332    1.000
    N4619    N        0.79675    0.40951    0.56592    1.000
    Si4620   Si       0.75940    0.43146    0.55961    1.000
    Si4621   Si       0.78844    0.30474    0.71266    1.000
    N4622    N        0.78022    0.29698    0.67276    1.000
    N4623    N        0.78950    0.34283    0.73401    1.000
    N4624    N        0.75623    0.28719    0.73964    1.000
    Si4625   Si       0.75293    0.40947    0.65243    1.000
    Si4626   Si       0.76092    0.47570    0.62487    1.000
    Si4627   Si       0.79281    0.50545    0.68263    1.000
    Si4628   Si       0.78878    0.38092    0.71492    1.000
    N4629    N        0.75598    0.38244    0.68659    1.000
    N4630    N        0.81029    0.46877    0.69927    1.000
    N4631    N        0.79505    0.41904    0.64054    1.000
    N4632    N        0.79618    0.49512    0.63945    1.000
    N4633    N        0.79892    0.27686    0.84853    1.000
    Si4634   Si       0.79005    0.32797    0.77511    1.000
    Si4635   Si       0.77932    0.37027    0.82040    1.000
    N4636    N        0.80690    0.28699    0.78001    1.000
    Si4637   Si       0.76819    0.25981    0.77256    1.000
    N4638    N        0.75475    0.34482    0.79489    1.000
    N4639    N        0.77659    0.38196    0.86123    1.000
    N4640    N        0.77581    0.46866    0.77790    1.000
    Si4641   Si       0.79927    0.43222    0.77423    1.000
    N4642    N        0.80392    0.40698    0.80848    1.000
    Si4643   Si       0.79138    0.42461    0.85470    1.000
    N4644    N        0.76013    0.45315    0.84121    1.000
    Si4645   Si       0.79812    0.50485    0.78367    1.000
    N4646    N        0.77646    0.40854    0.74599    1.000
    Si4647   Si       0.78237    0.36255    0.90001    1.000
    N4648    N        0.77943    0.27890    0.91249    1.000
    Si4649   Si       0.81196    0.29267    0.88699    1.000
    N4650    N        0.77621    0.44374    0.90181    1.000
    N4651    N        0.78966    0.38930    0.93273    1.000
    Si4652   Si       0.75999    0.42017    0.93372    1.000
    Si4653   Si       0.80692    0.45760    0.98116    1.000
    N4654    N        0.80780    0.50237    0.98256    1.000
    N4655    N        0.76770    0.44722    0.96881    1.000
    N4656    N        0.80079    0.61726    0.09196    1.000
    N4657    N        0.76182    0.61778    0.02863    1.000
    Si4658   Si       0.76401    0.62723    0.07024    1.000
    Si4659   Si       0.78314    0.51490    0.01652    1.000
    N4660    N        0.78345    0.55557    0.00596    1.000
    Si4661   Si       0.76461    0.51295    0.11816    1.000
    Si4662   Si       0.78304    0.64624    0.00303    1.000
    N4663    N        0.79836    0.73340    0.06838    1.000
    N4664    N        0.76816    0.66958    0.08202    1.000
    Si4665   Si       0.76364    0.74389    0.08905    1.000
    Si4666   Si       0.79568    0.65522    0.11347    1.000
    N4667    N        0.80838    0.66467    0.03046    1.000
    N4668    N        0.77130    0.60569    0.18760    1.000
    N4669    N        0.77867    0.53597    0.20366    1.000
    Si4670   Si       0.78191    0.56526    0.17272    1.000
    Si4671   Si       0.80599    0.50879    0.22599    1.000
    N4672    N        0.75880    0.55091    0.13812    1.000
    Si4673   Si       0.79657    0.64207    0.18658    1.000
    N4674    N        0.76386    0.72668    0.12908    1.000
    N4675    N        0.77996    0.66335    0.15249    1.000
    N4676    N        0.79716    0.66415    0.22223    1.000
    Si4677   Si       0.78350    0.73596    0.16554    1.000
    N4678    N        0.76741    0.59575    0.31340    1.000
    Si4679   Si       0.80223    0.62025    0.31274    1.000
    N4680    N        0.75537    0.52951    0.30284    1.000
    N4681    N        0.80942    0.51101    0.34126    1.000
    N4682    N        0.79884    0.64480    0.35012    1.000
    N4683    N        0.78527    0.71373    0.32773    1.000
    Si4684   Si       0.77242    0.72564    0.28544    1.000
    N4685    N        0.79845    0.65701    0.28739    1.000
    Si4686   Si       0.76995    0.66024    0.25511    1.000
    N4687    N        0.80952    0.72208    0.26362    1.000
    N4688    N        0.76431    0.55047    0.37507    1.000
    N4689    N        0.80849    0.58959    0.41911    1.000
    Si4690   Si       0.76672    0.57890    0.40875    1.000
    Si4691   Si       0.80456    0.62558    0.44465    1.000
    N4692    N        0.76464    0.62930    0.46565    1.000
    Si4693   Si       0.78513    0.51120    0.37700    1.000
    N4694    N        0.81258    0.51960    0.41044    1.000
    N4695    N        0.81261    0.53673    0.47842    1.000
    Si4696   Si       0.77671    0.72481    0.36889    1.000
    Si4697   Si       0.80400    0.69662    0.42586    1.000
    N4698    N        0.80747    0.65679    0.41522    1.000
    N4699    N        0.80497    0.73620    0.40574    1.000
    Si4700   Si       0.75944    0.66823    0.48222    1.000
    Si4701   Si       0.76347    0.73849    0.47945    1.000
    N4702    N        0.77079    0.70214    0.45765    1.000
    Si4703   Si       0.75892    0.65030    0.37400    1.000
    N4704    N        0.75706    0.69087    0.38907    1.000
    N4705    N        0.79370    0.60618    0.57072    1.000
    N4706    N        0.77017    0.51019    0.53382    1.000
    Si4707   Si       0.75805    0.58581    0.55159    1.000
    Si4708   Si       0.77433    0.53410    0.50087    1.000
    N4709    N        0.76224    0.57325    0.50890    1.000
    Si4710   Si       0.77336    0.63742    0.59664    1.000
    N4711    N        0.80539    0.71227    0.57060    1.000
    Si4712   Si       0.77496    0.69275    0.54798    1.000
    N4713    N        0.79041    0.67375    0.51400    1.000
    N4714    N        0.79215    0.74255    0.51302    1.000
    Si4715   Si       0.78125    0.74944    0.55459    1.000
    Si4716   Si       0.80586    0.70940    0.61677    1.000
    N4717    N        0.80204    0.66155    0.61846    1.000
    N4718    N        0.77059    0.73475    0.62476    1.000
    Si4719   Si       0.79396    0.60922    0.71352    1.000
    Si4720   Si       0.80170    0.56979    0.65594    1.000
    N4721    N        0.80590    0.61082    0.66931    1.000
    N4722    N        0.76062    0.58436    0.72154    1.000
    N4723    N        0.75816    0.56086    0.65510    1.000
    N4724    N        0.76737    0.75555    0.69363    1.000
    N4725    N        0.80406    0.70198    0.66914    1.000
    Si4726   Si       0.76410    0.72038    0.66508    1.000
    N4727    N        0.80032    0.65236    0.71342    1.000
    N4728    N        0.77193    0.53321    0.80395    1.000
    N4729    N        0.80685    0.55706    0.86681    1.000
    Si4730   Si       0.79157    0.62012    0.80798    1.000
    N4731    N        0.75525    0.60639    0.78880    1.000
    N4732    N        0.78725    0.63228    0.85026    1.000
    N4733    N        0.79894    0.72126    0.81699    1.000
    Si4734   Si       0.79355    0.68082    0.84262    1.000
    N4735    N        0.77028    0.70462    0.75232    1.000
    Si4736   Si       0.76297    0.71064    0.79436    1.000
    Si4737   Si       0.80807    0.67899    0.74822    1.000
    Si4738   Si       0.79152    0.52602    0.89717    1.000
    Si4739   Si       0.77027    0.58864    0.92945    1.000
    N4740    N        0.78692    0.54858    0.93416    1.000
    N4741    N        0.80817    0.60634    0.91521    1.000
    Si4742   Si       0.80899    0.54577    0.96842    1.000
    N4743    N        0.75454    0.51037    0.88325    1.000
    Si4744   Si       0.75658    0.71332    0.97224    1.000
    N4745    N        0.78174    0.70044    0.87996    1.000
    N4746    N        0.75640    0.67009    0.98016    1.000
    N4747    N        0.78931    0.74145    0.97005    1.000
    N4748    N        0.78126    0.79865    0.01998    1.000
    Si4749   Si       0.80047    0.79951    0.05980    1.000
    Si4750   Si       0.78211    0.84128    0.01974    1.000
    N4751    N        0.80116    0.84448    0.05889    1.000
    N4752    N        0.76738    0.78826    0.08652    1.000
    N4753    N        0.78245    0.95797    0.08341    1.000
    N4754    N        0.79517    0.90734    0.02624    1.000
    Si4755   Si       0.77332    0.93998    0.04454    1.000
    N4756    N        0.76356    0.97278    0.01380    1.000
    Si4757   Si       0.76236    0.94214    0.11996    1.000
    Si4758   Si       0.79483    0.85893    0.19194    1.000
    N4759    N        0.78083    0.77973    0.17534    1.000
    Si4760   Si       0.76571    0.91461    0.24042    1.000
    N4761    N        0.76816    0.90219    0.13176    1.000
    N4762    N        0.76752    0.96688    0.15590    1.000
    N4763    N        0.79977    0.00226    0.20847    1.000
    Si4764   Si       0.76495    0.00052    0.18200    1.000
    N4765    N        0.79596    0.89565    0.21299    1.000
    Si4766   Si       0.77026    0.80568    0.28313    1.000
    N4767    N        0.78599    0.84840    0.28469    1.000
    Si4768   Si       0.75860    0.86027    0.31618    1.000
    N4769    N        0.81144    0.79198    0.26983    1.000
    N4770    N        0.78514    0.88913    0.33503    1.000
    Si4771   Si       0.76825    0.92753    0.31693    1.000
    N4772    N        0.78933    0.92615    0.27591    1.000
    N4773    N        0.79625    0.95351    0.33893    1.000
    N4774    N        0.78658    0.99989    0.28178    1.000
    Si4775   Si       0.75981    0.81553    0.46119    1.000
    N4776    N        0.79937    0.83622    0.46328    1.000
    N4777    N        0.79358    0.86671    0.40052    1.000
    N4778    N        0.77610    0.77653    0.46430    1.000
    Si4779   Si       0.81015    0.77637    0.49090    1.000
    Si4780   Si       0.80650    0.86482    0.49762    1.000
    Si4781   Si       0.79327    0.00566    0.47909    1.000
    N4782    N        0.78372    0.90088    0.48292    1.000
    Si4783   Si       0.75569    0.88726    0.40972    1.000
    N4784    N        0.76666    0.92864    0.39893    1.000
    Si4785   Si       0.80448    0.94549    0.38095    1.000
    N4786    N        0.81067    0.96702    0.46959    1.000
    Si4787   Si       0.79357    0.93967    0.49830    1.000
    N4788    N        0.78434    0.84764    0.53307    1.000
    N4789    N        0.78426    0.78656    0.57798    1.000
    N4790    N        0.77322    0.85738    0.60986    1.000
    Si4791   Si       0.80790    0.81910    0.55884    1.000
    Si4792   Si       0.77123    0.77864    0.61854    1.000
    N4793    N        0.77532    0.97453    0.56904    1.000
    N4794    N        0.80362    0.91775    0.59719    1.000
    Si4795   Si       0.77231    0.89946    0.61750    1.000
    Si4796   Si       0.81185    0.95072    0.57060    1.000
    N4797    N        0.79570    0.80153    0.64653    1.000
    Si4798   Si       0.79558    0.78782    0.68808    1.000
    Si4799   Si       0.78755    0.85805    0.73305    1.000
    N4800    N        0.79087    0.81863    0.71816    1.000
    Si4801   Si       0.80970    0.83854    0.62632    1.000
    N4802    N        0.76954    0.00478    0.74205    1.000
    N4803    N        0.75137    0.88560    0.72896    1.000
    N4804    N        0.77222    0.97925    0.68030    1.000
    N4805    N        0.77291    0.90106    0.66190    1.000
    N4806    N        0.77575    0.78855    0.83089    1.000
    N4807    N        0.79788    0.84540    0.77377    1.000
    Si4808   Si       0.79235    0.80376    0.76098    1.000
    Si4809   Si       0.79692    0.86929    0.80942    1.000
    Si4810   Si       0.80301    0.80937    0.85949    1.000
    Si4811   Si       0.80845    0.76320    0.81848    1.000
    N4812    N        0.81176    0.85295    0.84676    1.000
    N4813    N        0.78858    0.95931    0.83931    1.000
    Si4814   Si       0.77722    0.92968    0.81005    1.000
    Si4815   Si       0.80686    0.99626    0.82370    1.000
    N4816    N        0.75801    0.89035    0.81667    1.000
    N4817    N        0.75521    0.94927    0.77896    1.000
    Si4818   Si       0.76545    0.77352    0.98659    1.000
    N4819    N        0.78737    0.80910    0.90006    1.000
    N4820    N        0.77330    0.86387    0.94086    1.000
    Si4821   Si       0.80809    0.83673    0.93703    1.000
    N4822    N        0.81164    0.85695    0.98796    1.000
    Si4823   Si       0.78221    0.89079    0.98698    1.000
    N4824    N        0.76083    0.92196    0.96318    1.000
    N4825    N        0.78993    0.90593    0.88723    1.000
    Si4826   Si       0.78756    0.94952    0.88249    1.000
    Si4827   Si       0.76180    0.90216    0.92219    1.000
    Si4828   Si       0.84535    0.03928    0.03248    1.000
    Si4829   Si       0.84658    0.08397    0.09575    1.000
    N4830    N        0.85911    0.07776    0.05363    1.000
    N4831    N        0.84432    0.12541    0.10669    1.000
    N4832    N        0.81287    0.01329    0.04798    1.000
    N4833    N        0.81183    0.06015    0.10231    1.000
    N4834    N        0.83219    0.14493    0.04073    1.000
    Si4835   Si       0.85903    0.15004    0.07406    1.000
    N4836    N        0.85991    0.19301    0.08493    1.000
    Si4837   Si       0.85673    0.15491    0.00559    1.000
    Si4838   Si       0.82139    0.21053    0.09560    1.000
    N4839    N        0.84412    0.25205    0.04293    1.000
    N4840    N        0.81947    0.24944    0.11832    1.000
    Si4841   Si       0.81465    0.03201    0.13664    1.000
    Si4842   Si       0.84033    0.01559    0.19642    1.000
    N4843    N        0.83979    0.04820    0.16828    1.000
    N4844    N        0.84838    0.02682    0.23638    1.000
    Si4845   Si       0.85128    0.12873    0.20711    1.000
    N4846    N        0.83036    0.11432    0.24155    1.000
    N4847    N        0.83803    0.21534    0.17952    1.000
    N4848    N        0.83411    0.23055    0.24282    1.000
    Si4849   Si       0.81875    0.25005    0.16270    1.000
    N4850    N        0.86505    0.16811    0.21968    1.000
    Si4851   Si       0.83138    0.19503    0.21739    1.000
    Si4852   Si       0.83681    0.15506    0.14151    1.000
    N4853    N        0.81874    0.13767    0.17642    1.000
    Si4854   Si       0.84809    0.11349    0.28209    1.000
    N4855    N        0.84685    0.07154    0.28678    1.000
    Si4856   Si       0.82846    0.05606    0.32196    1.000
    N4857    N        0.85628    0.06837    0.35272    1.000
    N4858    N        0.83196    0.01394    0.33751    1.000
    Si4859   Si       0.86337    0.10944    0.35756    1.000
    N4860    N        0.84506    0.12892    0.32463    1.000
    Si4861   Si       0.83263    0.17145    0.33370    1.000
    Si4862   Si       0.82637    0.22752    0.28556    1.000
    N4863    N        0.86368    0.24339    0.30444    1.000
    Si4864   Si       0.84629    0.03370    0.37631    1.000
    N4865    N        0.85967    0.06399    0.41703    1.000
    Si4866   Si       0.81865    0.06645    0.42874    1.000
    N4867    N        0.86074    0.11268    0.46863    1.000
    N4868    N        0.86266    0.12256    0.39784    1.000
    Si4869   Si       0.82064    0.20823    0.45520    1.000
    Si4870   Si       0.84217    0.15994    0.40726    1.000
    N4871    N        0.86244    0.22735    0.45401    1.000
    N4872    N        0.82258    0.16380    0.44533    1.000
    N4873    N        0.82117    0.17661    0.37434    1.000
    Si4874   Si       0.84493    0.15020    0.48242    1.000
    N4875    N        0.87012    0.23720    0.37620    1.000
    Si4876   Si       0.83689    0.03173    0.53734    1.000
    N4877    N        0.84813    0.06139    0.50947    1.000
    N4878    N        0.81906    0.10720    0.57508    1.000
    N4879    N        0.81474    0.03356    0.57756    1.000
    N4880    N        0.84832    0.17494    0.57760    1.000
    N4881    N        0.85278    0.22284    0.52372    1.000
    N4882    N        0.84374    0.23692    0.59211    1.000
    Si4883   Si       0.86483    0.21221    0.56424    1.000
    Si4884   Si       0.81668    0.14858    0.56212    1.000
    N4885    N        0.81680    0.14767    0.51761    1.000
    Si4886   Si       0.85553    0.16720    0.62184    1.000
    Si4887   Si       0.81328    0.23985    0.51250    1.000
    Si4888   Si       0.85852    0.09744    0.65174    1.000
    N4889    N        0.83853    0.11755    0.68414    1.000
    N4890    N        0.82580    0.07322    0.63498    1.000
    Si4891   Si       0.83491    0.08843    0.71973    1.000
    N4892    N        0.81634    0.05294    0.70228    1.000
    N4893    N        0.81481    0.17011    0.63768    1.000
    Si4894   Si       0.86266    0.23716    0.63039    1.000
    Si4895   Si       0.84268    0.22539    0.69991    1.000
    N4896    N        0.82853    0.23454    0.73998    1.000
    N4897    N        0.83405    0.25006    0.66168    1.000
    N4898    N        0.82855    0.18357    0.70326    1.000
    Si4899   Si       0.81403    0.15132    0.67862    1.000
    N4900    N        0.85785    0.10280    0.79739    1.000
    N4901    N        0.82561    0.04223    0.76804    1.000
    Si4902   Si       0.86057    0.01475    0.78154    1.000
    N4903    N        0.82788    0.01575    0.85561    1.000
    Si4904   Si       0.82153    0.08107    0.78608    1.000
    N4905    N        0.83740    0.11463    0.86349    1.000
    Si4906   Si       0.87173    0.01617    0.85511    1.000
    N4907    N        0.84137    0.18528    0.78509    1.000
    N4908    N        0.83306    0.20745    0.85001    1.000
    Si4909   Si       0.85329    0.24785    0.85292    1.000
    Si4910   Si       0.82226    0.19105    0.74708    1.000
    Si4911   Si       0.87161    0.18664    0.85900    1.000
    N4912    N        0.83455    0.05405    0.99388    1.000
    N4913    N        0.84257    0.02525    0.92859    1.000
    Si4914   Si       0.84624    0.06344    0.95170    1.000
    N4915    N        0.85715    0.10955    0.94100    1.000
    Si4916   Si       0.81528    0.12204    0.95493    1.000
    Si4917   Si       0.84591    0.13325    0.90319    1.000
    N4918    N        0.85265    0.21930    0.94746    1.000
    Si4919   Si       0.81650    0.19966    0.95697    1.000
    N4920    N        0.83158    0.16093    0.97306    1.000
    Si4921   Si       0.83080    0.29284    0.04060    1.000
    N4922    N        0.82943    0.31443    0.07649    1.000
    Si4923   Si       0.84171    0.35697    0.08942    1.000
    Si4924   Si       0.82510    0.29332    0.11392    1.000
    N4925    N        0.85215    0.31488    0.00835    1.000
    Si4926   Si       0.85099    0.35758    0.01169    1.000
    N4927    N        0.83963    0.38011    0.05011    1.000
    N4928    N        0.86105    0.48332    0.07408    1.000
    Si4929   Si       0.82104    0.46562    0.05890    1.000
    N4930    N        0.81509    0.44470    0.02312    1.000
    N4931    N        0.82800    0.37390    0.12807    1.000
    Si4932   Si       0.85748    0.31512    0.17186    1.000
    Si4933   Si       0.83799    0.27045    0.22732    1.000
    N4934    N        0.84567    0.27553    0.18654    1.000
    N4935    N        0.82178    0.33600    0.18281    1.000
    N4936    N        0.86468    0.30215    0.13128    1.000
    N4937    N        0.84802    0.35965    0.24295    1.000
    Si4938   Si       0.81339    0.33542    0.22660    1.000
    Si4939   Si       0.87015    0.49489    0.18480    1.000
    N4940    N        0.81677    0.41899    0.22585    1.000
    N4941    N        0.83105    0.48429    0.19882    1.000
    Si4942   Si       0.85570    0.39795    0.22542    1.000
    Si4943   Si       0.83879    0.41146    0.15114    1.000
    N4944    N        0.87062    0.40414    0.18336    1.000
    N4945    N        0.84662    0.44796    0.12950    1.000
    Si4946   Si       0.84617    0.31793    0.32661    1.000
    N4947    N        0.83521    0.29739    0.36236    1.000
    Si4948   Si       0.83424    0.36390    0.28583    1.000
    N4949    N        0.85693    0.36315    0.32151    1.000
    N4950    N        0.81921    0.32342    0.29363    1.000
    N4951    N        0.86637    0.29258    0.24822    1.000
    N4952    N        0.84986    0.44806    0.31329    1.000
    N4953    N        0.84869    0.35744    0.44996    1.000
    Si4954   Si       0.85505    0.27144    0.46266    1.000
    N4955    N        0.86314    0.29260    0.42398    1.000
    Si4956   Si       0.81563    0.36623    0.47642    1.000
    N4957    N        0.86791    0.36208    0.38760    1.000
    N4958    N        0.81423    0.26368    0.47635    1.000
    Si4959   Si       0.86913    0.28032    0.38299    1.000
    Si4960   Si       0.85055    0.47412    0.49715    1.000
    N4961    N        0.81964    0.47103    0.46637    1.000
    Si4962   Si       0.85868    0.40372    0.40236    1.000
    N4963    N        0.82091    0.40675    0.48803    1.000
    N4964    N        0.81972    0.42517    0.41115    1.000
    N4965    N        0.85172    0.32459    0.55939    1.000
    Si4966   Si       0.85295    0.32587    0.51475    1.000
    N4967    N        0.82996    0.36606    0.60829    1.000
    Si4968   Si       0.81637    0.33061    0.58625    1.000
    N4969    N        0.83559    0.45777    0.53332    1.000
    N4970    N        0.84790    0.43880    0.59706    1.000
    Si4971   Si       0.81750    0.40796    0.60321    1.000
    N4972    N        0.82590    0.50606    0.57171    1.000
    Si4973   Si       0.81096    0.42261    0.52583    1.000
    Si4974   Si       0.81695    0.28858    0.65021    1.000
    N4975    N        0.83028    0.29480    0.71705    1.000
    Si4976   Si       0.86121    0.31603    0.70012    1.000
    N4977    N        0.84695    0.32023    0.65788    1.000
    Si4978   Si       0.86168    0.35170    0.63313    1.000
    Si4979   Si       0.83479    0.48091    0.73183    1.000
    Si4980   Si       0.82089    0.43362    0.67358    1.000
    N4981    N        0.82666    0.39552    0.69724    1.000
    N4982    N        0.86877    0.50190    0.62461    1.000
    N4983    N        0.86052    0.44046    0.66045    1.000
    Si4984   Si       0.86885    0.38450    0.69904    1.000
    N4985    N        0.85935    0.27849    0.82031    1.000
    Si4986   Si       0.83943    0.27255    0.75472    1.000
    Si4987   Si       0.82334    0.30048    0.81985    1.000
    N4988    N        0.86362    0.37901    0.84993    1.000
    Si4989   Si       0.83965    0.38000    0.81236    1.000
    N4990    N        0.81530    0.34400    0.80925    1.000
    N4991    N        0.83704    0.45088    0.76252    1.000
    N4992    N        0.86743    0.39482    0.78269    1.000
    Si4993   Si       0.86748    0.49769    0.83173    1.000
    Si4994   Si       0.86937    0.42299    0.85626    1.000
    N4995    N        0.85103    0.27481    0.88668    1.000
    Si4996   Si       0.85591    0.35511    0.88709    1.000
    N4997    N        0.81727    0.33569    0.89248    1.000
    Si4998   Si       0.82876    0.39927    0.95025    1.000
    N4999    N        0.82493    0.38534    0.99059    1.000
    N5000    N        0.83514    0.44180    0.95025    1.000
    Si5001   Si       0.81758    0.45449    0.90871    1.000
    N5002    N        0.82934    0.43462    0.86990    1.000
    N5003    N        0.85965    0.38357    0.92197    1.000
    N5004    N        0.82190    0.49636    0.90830    1.000
    N5005    N        0.84489    0.60133    0.03830    1.000
    Si5006   Si       0.83949    0.59677    0.08248    1.000
    N5007    N        0.84352    0.55295    0.08877    1.000
    Si5008   Si       0.84730    0.52156    0.06085    1.000
    N5009    N        0.86692    0.60963    0.11272    1.000
    Si5010   Si       0.86382    0.57474    0.01165    1.000
    Si5011   Si       0.84188    0.63970    0.01782    1.000
    N5012    N        0.82806    0.68155    0.10100    1.000
    N5013    N        0.84960    0.71147    0.04217    1.000
    Si5014   Si       0.84189    0.74365    0.07056    1.000
    N5015    N        0.86459    0.73631    0.10616    1.000
    Si5016   Si       0.81495    0.69245    0.06174    1.000
    N5017    N        0.82026    0.57033    0.15392    1.000
    Si5018   Si       0.83388    0.53869    0.12825    1.000
    Si5019   Si       0.85187    0.60189    0.15250    1.000
    N5020    N        0.87105    0.51702    0.14196    1.000
    Si5021   Si       0.86273    0.65617    0.20590    1.000
    N5022    N        0.83885    0.63329    0.17943    1.000
    N5023    N        0.82573    0.72256    0.16448    1.000
    N5024    N        0.86088    0.69871    0.22635    1.000
    Si5025   Si       0.84918    0.70354    0.13176    1.000
    Si5026   Si       0.85718    0.72892    0.19317    1.000
    N5027    N        0.84391    0.60533    0.31212    1.000
    Si5028   Si       0.85047    0.52274    0.34931    1.000
    Si5029   Si       0.85758    0.52813    0.26929    1.000
    Si5030   Si       0.86608    0.60631    0.27162    1.000
    N5031    N        0.86426    0.56765    0.25013    1.000
    N5032    N        0.81614    0.51605    0.26611    1.000
    Si5033   Si       0.86772    0.59497    0.34716    1.000
    N5034    N        0.85279    0.56193    0.36934    1.000
    N5035    N        0.85225    0.68452    0.30079    1.000
    Si5036   Si       0.83049    0.67899    0.25973    1.000
    N5037    N        0.83703    0.69100    0.36354    1.000
    Si5038   Si       0.81542    0.67961    0.32477    1.000
    N5039    N        0.85277    0.63988    0.24714    1.000
    Si5040   Si       0.83306    0.75778    0.25700    1.000
    N5041    N        0.87346    0.75174    0.27349    1.000
    N5042    N        0.86463    0.62803    0.37668    1.000
    Si5043   Si       0.85291    0.54674    0.48167    1.000
    Si5044   Si       0.83683    0.55716    0.40944    1.000
    N5045    N        0.86631    0.55504    0.44076    1.000
    Si5046   Si       0.86936    0.62668    0.49115    1.000
    Si5047   Si       0.87032    0.71337    0.37711    1.000
    Si5048   Si       0.82622    0.67806    0.49172    1.000
    N5049    N        0.83904    0.69544    0.45303    1.000
    N5050    N        0.86958    0.75203    0.40167    1.000
    N5051    N        0.82892    0.63630    0.47753    1.000
    Si5052   Si       0.82934    0.65108    0.37975    1.000
    Si5053   Si       0.82757    0.58253    0.58377    1.000
    N5054    N        0.85498    0.61188    0.60177    1.000
    N5055    N        0.85757    0.55921    0.55864    1.000
    Si5056   Si       0.86273    0.51551    0.55168    1.000
    Si5057   Si       0.82627    0.51403    0.61394    1.000
    N5058    N        0.86649    0.51442    0.50675    1.000
    N5059    N        0.81890    0.55687    0.61885    1.000
    N5060    N        0.86368    0.58531    0.49875    1.000
    N5061    N        0.86352    0.67599    0.58355    1.000
    Si5062   Si       0.84568    0.70752    0.55729    1.000
    N5063    N        0.85563    0.69384    0.51883    1.000
    Si5064   Si       0.84473    0.65036    0.61352    1.000
    N5065    N        0.86426    0.74609    0.56718    1.000
    Si5066   Si       0.83689    0.55080    0.72610    1.000
    N5067    N        0.82787    0.59239    0.73502    1.000
    N5068    N        0.81533    0.54271    0.68832    1.000
    Si5069   Si       0.83869    0.72681    0.67227    1.000
    N5070    N        0.84160    0.73186    0.62868    1.000
    N5071    N        0.85341    0.65810    0.65584    1.000
    Si5072   Si       0.81033    0.65725    0.66950    1.000
    Si5073   Si       0.84067    0.61126    0.77333    1.000
    N5074    N        0.82037    0.58673    0.80498    1.000
    N5075    N        0.82796    0.51082    0.81878    1.000
    N5076    N        0.85731    0.61157    0.86436    1.000
    N5077    N        0.81834    0.51761    0.74778    1.000
    Si5078   Si       0.80727    0.54826    0.82406    1.000
    Si5079   Si       0.85188    0.74524    0.77090    1.000
    N5080    N        0.83486    0.68001    0.85677    1.000
    Si5081   Si       0.86571    0.65274    0.85446    1.000
    N5082    N        0.84189    0.70673    0.74923    1.000
    N5083    N        0.81430    0.64593    0.78014    1.000
    Si5084   Si       0.86026    0.51396    0.90687    1.000
    Si5085   Si       0.83229    0.58568    0.88625    1.000
    N5086    N        0.85568    0.55626    0.90728    1.000
    N5087    N        0.84793    0.56478    0.97263    1.000
    N5088    N        0.82018    0.63149    0.97945    1.000
    Si5089   Si       0.82469    0.69847    0.89497    1.000
    N5090    N        0.86777    0.75289    0.96337    1.000
    Si5091   Si       0.82956    0.63380    0.93898    1.000
    N5092    N        0.83942    0.67339    0.92567    1.000
    Si5093   Si       0.82669    0.75616    0.95054    1.000
    N5094    N        0.82729    0.73923    0.91191    1.000
    N5095    N        0.84000    0.78615    0.06886    1.000
    N5096    N        0.86639    0.81478    0.01059    1.000
    N5097    N        0.85883    0.88027    0.03384    1.000
    Si5098   Si       0.82100    0.88369    0.05514    1.000
    N5099    N        0.83320    0.90069    0.09299    1.000
    N5100    N        0.84902    0.95513    0.05830    1.000
    Si5101   Si       0.82073    0.98072    0.07922    1.000
    Si5102   Si       0.86913    0.92658    0.08230    1.000
    N5103    N        0.82883    0.99321    0.12120    1.000
    N5104    N        0.81140    0.82862    0.21459    1.000
    N5105    N        0.85482    0.80511    0.16643    1.000
    Si5106   Si       0.85596    0.84917    0.16108    1.000
    Si5107   Si       0.82026    0.79170    0.19005    1.000
    N5108    N        0.81601    0.86129    0.15344    1.000
    N5109    N        0.86577    0.87307    0.20031    1.000
    N5110    N        0.83844    0.76115    0.21495    1.000
    Si5111   Si       0.83909    0.90898    0.20001    1.000
    Si5112   Si       0.85116    0.96486    0.14536    1.000
    N5113    N        0.85487    0.92386    0.23727    1.000
    N5114    N        0.83287    0.92547    0.16055    1.000
    N5115    N        0.86657    0.98621    0.17965    1.000
    Si5116   Si       0.81348    0.89866    0.13123    1.000
    N5117    N        0.84386    0.85217    0.34956    1.000
    N5118    N        0.85309    0.85386    0.27086    1.000
    N5119    N        0.85441    0.78573    0.33404    1.000
    Si5120   Si       0.81874    0.83201    0.25680    1.000
    Si5121   Si       0.85359    0.81409    0.36702    1.000
    Si5122   Si       0.86167    0.86404    0.31199    1.000
    Si5123   Si       0.81405    0.88024    0.36442    1.000
    N5124    N        0.84433    0.96732    0.28959    1.000
    Si5125   Si       0.83388    0.92557    0.27963    1.000
    N5126    N        0.85880    0.90782    0.31313    1.000
    Si5127   Si       0.81190    0.98558    0.31404    1.000
    Si5128   Si       0.87338    0.92414    0.35115    1.000
    Si5129   Si       0.82092    0.84244    0.42584    1.000
    Si5130   Si       0.83364    0.76563    0.41857    1.000
    N5131    N        0.83087    0.80693    0.40185    1.000
    N5132    N        0.85517    0.86985    0.43187    1.000
    N5133    N        0.84339    0.77423    0.46047    1.000
    N5134    N        0.84876    0.88147    0.49914    1.000
    N5135    N        0.87194    0.00586    0.45809    1.000
    N5136    N        0.83630    0.91510    0.37772    1.000
    N5137    N        0.81611    0.97853    0.40590    1.000
    Si5138   Si       0.84358    0.97632    0.44210    1.000
    Si5139   Si       0.86623    0.90416    0.40828    1.000
    N5140    N        0.86731    0.93962    0.43373    1.000
    N5141    N        0.82647    0.79318    0.52684    1.000
    N5142    N        0.83433    0.83648    0.58897    1.000
    Si5143   Si       0.86555    0.77722    0.53862    1.000
    N5144    N        0.82250    0.93709    0.53142    1.000
    N5145    N        0.84663    0.96968    0.58926    1.000
    Si5146   Si       0.86139    0.91987    0.51800    1.000
    Si5147   Si       0.83912    0.00852    0.60630    1.000
    N5148    N        0.83174    0.86311    0.65452    1.000
    N5149    N        0.83245    0.76461    0.69100    1.000
    Si5150   Si       0.86654    0.85285    0.67752    1.000
    Si5151   Si       0.81354    0.89704    0.67526    1.000
    Si5152   Si       0.85692    0.89969    0.72997    1.000
    N5153    N        0.82474    0.00548    0.64751    1.000
    Si5154   Si       0.81470    0.97522    0.67706    1.000
    N5155    N        0.81863    0.88575    0.71837    1.000
    N5156    N        0.83218    0.93581    0.67032    1.000
    Si5157   Si       0.87012    0.97425    0.72375    1.000
    N5158    N        0.83259    0.99057    0.71373    1.000
    N5159    N        0.83546    0.78112    0.84733    1.000
    N5160    N        0.81893    0.77423    0.77768    1.000
    N5161    N        0.83556    0.98258    0.79513    1.000
    Si5162   Si       0.84718    0.93971    0.78923    1.000
    N5163    N        0.81626    0.90942    0.79630    1.000
    N5164    N        0.86032    0.93867    0.74813    1.000
    N5165    N        0.82657    0.80148    0.95250    1.000
    N5166    N        0.83651    0.86242    0.91563    1.000
    Si5167   Si       0.82302    0.87973    0.87896    1.000
    Si5168   Si       0.86884    0.79644    0.96917    1.000
    Si5169   Si       0.87332    0.88322    0.92765    1.000
    Si5170   Si       0.85198    0.85658    0.99769    1.000
    N5171    N        0.82286    0.96280    0.90144    1.000
    N5172    N        0.85779    0.90633    0.87313    1.000
    Si5173   Si       0.81737    0.00784    0.89924    1.000
    Si5174   Si       0.86145    0.94590    0.89375    1.000
    Si5175   Si       0.89650    0.10111    0.03987    1.000
    Si5176   Si       0.89909    0.04647    0.07431    1.000
    N5177    N        0.88467    0.02123    0.04120    1.000
    N5178    N        0.88130    0.11778    0.00200    1.000
    N5179    N        0.92181    0.01808    0.09556    1.000
    N5180    N        0.88158    0.06614    0.11228    1.000
    N5181    N        0.92873    0.07141    0.05074    1.000
    N5182    N        0.89884    0.13445    0.06909    1.000
    N5183    N        0.91029    0.23395    0.06232    1.000
    N5184    N        0.88123    0.18785    0.01711    1.000
    Si5185   Si       0.89664    0.20926    0.09670    1.000
    Si5186   Si       0.88019    0.22969    0.03199    1.000
    N5187    N        0.88906    0.25427    0.99709    1.000
    N5188    N        0.90813    0.04537    0.17137    1.000
    Si5189   Si       0.87722    0.06963    0.15562    1.000
    N5190    N        0.87775    0.10823    0.17685    1.000
    Si5191   Si       0.92798    0.02727    0.13783    1.000
    N5192    N        0.92922    0.01252    0.22096    1.000
    N5193    N        0.90683    0.07082    0.24379    1.000
    N5194    N        0.90477    0.22213    0.19745    1.000
    Si5195   Si       0.87917    0.21180    0.16439    1.000
    N5196    N        0.92830    0.15185    0.19424    1.000
    Si5197   Si       0.90739    0.18303    0.21505    1.000
    N5198    N        0.89048    0.23679    0.13105    1.000
    N5199    N        0.87650    0.17066    0.15045    1.000
    Si5200   Si       0.90371    0.13916    0.16230    1.000
    N5201    N        0.89442    0.02375    0.29488    1.000
    N5202    N        0.90547    0.12244    0.35393    1.000
    Si5203   Si       0.92228    0.10021    0.27221    1.000
    Si5204   Si       0.87456    0.04692    0.26289    1.000
    N5205    N        0.88922    0.12756    0.28039    1.000
    N5206    N        0.92909    0.02676    0.35176    1.000
    Si5207   Si       0.89603    0.14775    0.31961    1.000
    Si5208   Si       0.88417    0.22585    0.33684    1.000
    N5209    N        0.87443    0.18344    0.33480    1.000
    N5210    N        0.92631    0.22957    0.32971    1.000
    N5211    N        0.87812    0.00866    0.39278    1.000
    Si5212   Si       0.89005    0.03205    0.42930    1.000
    N5213    N        0.90392    0.06524    0.45797    1.000
    Si5214   Si       0.88184    0.09990    0.43115    1.000
    N5215    N        0.91771    0.12652    0.42986    1.000
    Si5216   Si       0.88024    0.08234    0.49088    1.000
    N5217    N        0.92641    0.01453    0.49521    1.000
    Si5218   Si       0.87907    0.21292    0.49248    1.000
    Si5219   Si       0.92005    0.15139    0.46786    1.000
    N5220    N        0.91529    0.23865    0.49424    1.000
    Si5221   Si       0.90478    0.14910    0.39223    1.000
    N5222    N        0.88340    0.17153    0.48562    1.000
    N5223    N        0.92284    0.24060    0.42344    1.000
    Si5224   Si       0.88369    0.22237    0.41560    1.000
    N5225    N        0.87906    0.18011    0.40996    1.000
    N5226    N        0.90795    0.08396    0.59352    1.000
    N5227    N        0.90746    0.08861    0.52430    1.000
    Si5228   Si       0.91009    0.12621    0.60197    1.000
    N5229    N        0.87845    0.02622    0.60674    1.000
    Si5230   Si       0.92531    0.06898    0.55835    1.000
    N5231    N        0.87416    0.12916    0.62638    1.000
    N5232    N        0.87258    0.00780    0.53841    1.000
    N5233    N        0.90835    0.21667    0.57375    1.000
    N5234    N        0.92174    0.14777    0.56532    1.000
    Si5235   Si       0.91655    0.25852    0.58710    1.000
    N5236    N        0.87860    0.08456    0.72965    1.000
    Si5237   Si       0.90372    0.05451    0.62638    1.000
    N5238    N        0.89029    0.07220    0.66209    1.000
    Si5239   Si       0.91060    0.07426    0.70044    1.000
    Si5240   Si       0.92818    0.01273    0.74221    1.000
    N5241    N        0.91930    0.16184    0.69126    1.000
    N5242    N        0.88174    0.19737    0.64038    1.000
    N5243    N        0.88595    0.22734    0.70430    1.000
    Si5244   Si       0.90715    0.20119    0.67538    1.000
    N5245    N        0.92105    0.08911    0.78883    1.000
    Si5246   Si       0.88862    0.10347    0.76558    1.000
    Si5247   Si       0.92282    0.04838    0.80609    1.000
    N5248    N        0.90707    0.10155    0.85729    1.000
    N5249    N        0.88375    0.02952    0.81616    1.000
    Si5250   Si       0.87282    0.11652    0.83543    1.000
    N5251    N        0.90939    0.21036    0.78372    1.000
    N5252    N        0.89720    0.14693    0.76062    1.000
    N5253    N        0.89187    0.22654    0.85758    1.000
    Si5254   Si       0.88330    0.17745    0.78855    1.000
    N5255    N        0.88459    0.16001    0.82818    1.000
    Si5256   Si       0.92739    0.24829    0.85617    1.000
    Si5257   Si       0.92681    0.06682    0.87552    1.000
    N5258    N        0.89144    0.05297    0.95357    1.000
    N5259    N        0.89121    0.04242    0.88415    1.000
    Si5260   Si       0.88527    0.02148    0.92364    1.000
    Si5261   Si       0.89619    0.11563    0.96174    1.000
    N5262    N        0.87330    0.16661    0.89723    1.000
    Si5263   Si       0.92005    0.17444    0.99645    1.000
    N5264    N        0.91646    0.21864    0.93207    1.000
    N5265    N        0.90586    0.15819    0.95670    1.000
    Si5266   Si       0.90972    0.17724    0.91884    1.000
    Si5267   Si       0.88677    0.24299    0.95199    1.000
    N5268    N        0.88608    0.35968    0.08638    1.000
    N5269    N        0.89327    0.36883    0.01620    1.000
    N5270    N        0.92032    0.29512    0.09128    1.000
    Si5271   Si       0.92345    0.33824    0.09273    1.000
    N5272    N        0.92615    0.31297    0.99394    1.000
    Si5273   Si       0.90246    0.50776    0.01268    1.000
    N5274    N        0.93056    0.49259    0.04521    1.000
    Si5275   Si       0.88283    0.38956    0.05376    1.000
    Si5276   Si       0.90195    0.46817    0.06601    1.000
    N5277    N        0.91276    0.47273    0.10814    1.000
    N5278    N        0.90263    0.42615    0.05790    1.000
    N5279    N        0.87948    0.47415    0.00099    1.000
    Si5280   Si       0.87211    0.47919    0.11826    1.000
    Si5281   Si       0.88458    0.33196    0.23781    1.000
    Si5282   Si       0.90229    0.27880    0.13023    1.000
    N5283    N        0.89161    0.33117    0.19449    1.000
    N5284    N        0.93380    0.28421    0.15955    1.000
    Si5285   Si       0.92925    0.32777    0.17382    1.000
    N5286    N        0.90080    0.46369    0.17643    1.000
    Si5287   Si       0.91333    0.50431    0.23662    1.000
    Si5288   Si       0.90969    0.42109    0.17728    1.000
    Si5289   Si       0.92207    0.39964    0.24660    1.000
    N5290    N        0.88632    0.30453    0.31222    1.000
    Si5291   Si       0.88205    0.27387    0.28170    1.000
    Si5292   Si       0.92175    0.31328    0.33564    1.000
    N5293    N        0.92435    0.35720    0.34126    1.000
    Si5294   Si       0.88645    0.37731    0.35027    1.000
    N5295    N        0.91553    0.35778    0.25440    1.000
    N5296    N        0.92235    0.26005    0.26763    1.000
    N5297    N        0.87928    0.49004    0.25711    1.000
    N5298    N        0.91073    0.46387    0.31114    1.000
    Si5299   Si       0.88390    0.45458    0.34384    1.000
    Si5300   Si       0.87926    0.45226    0.28163    1.000
    N5301    N        0.87669    0.49231    0.36479    1.000
    N5302    N        0.88028    0.41815    0.36627    1.000
    N5303    N        0.88117    0.41888    0.25295    1.000
    N5304    N        0.91048    0.29207    0.37197    1.000
    Si5305   Si       0.87224    0.33464    0.42119    1.000
    N5306    N        0.90811    0.34235    0.44276    1.000
    Si5307   Si       0.88793    0.37620    0.46612    1.000
    N5308    N        0.92478    0.38778    0.48980    1.000
    N5309    N        0.89096    0.45722    0.48984    1.000
    Si5310   Si       0.91298    0.49993    0.39141    1.000
    N5311    N        0.88237    0.41048    0.43832    1.000
    Si5312   Si       0.90517    0.44507    0.45080    1.000
    N5313    N        0.89689    0.47883    0.42656    1.000
    N5314    N        0.91185    0.28607    0.55421    1.000
    Si5315   Si       0.91210    0.27854    0.51190    1.000
    Si5316   Si       0.89516    0.32225    0.56847    1.000
    N5317    N        0.89214    0.32992    0.61158    1.000
    N5318    N        0.92495    0.35241    0.55469    1.000
    Si5319   Si       0.90641    0.38107    0.52824    1.000
    N5320    N        0.87354    0.36284    0.50768    1.000
    N5321    N        0.87370    0.29237    0.49558    1.000
    Si5322   Si       0.92706    0.41601    0.58487    1.000
    N5323    N        0.89317    0.41179    0.55596    1.000
    N5324    N        0.89502    0.48271    0.55212    1.000
    N5325    N        0.91508    0.44709    0.61224    1.000
    Si5326   Si       0.90852    0.49538    0.50135    1.000
    Si5327   Si       0.86962    0.44806    0.55821    1.000
    N5328    N        0.87146    0.34990    0.72470    1.000
    N5329    N        0.89464    0.26441    0.62535    1.000
    N5330    N        0.88831    0.37131    0.66116    1.000
    N5331    N        0.89809    0.29450    0.68905    1.000
    Si5332   Si       0.90145    0.26651    0.72107    1.000
    Si5333   Si       0.90447    0.30200    0.64550    1.000
    N5334    N        0.87261    0.48543    0.71223    1.000
    N5335    N        0.92801    0.45902    0.67966    1.000
    N5336    N        0.89158    0.41613    0.71866    1.000
    Si5337   Si       0.88674    0.45055    0.69292    1.000
    Si5338   Si       0.87352    0.45936    0.62381    1.000
    Si5339   Si       0.92562    0.41646    0.74385    1.000
    Si5340   Si       0.89383    0.29407    0.79698    1.000
    N5341    N        0.89142    0.33746    0.79924    1.000
    Si5342   Si       0.90499    0.36168    0.83331    1.000
    Si5343   Si       0.88814    0.35964    0.76367    1.000
    N5344    N        0.88236    0.27880    0.75599    1.000
    N5345    N        0.92576    0.27201    0.81827    1.000
    N5346    N        0.91593    0.44596    0.77447    1.000
    N5347    N        0.91971    0.40287    0.83183    1.000
    Si5348   Si       0.92622    0.44382    0.81867    1.000
    N5349    N        0.87749    0.45290    0.82385    1.000
    N5350    N        0.88087    0.49877    0.87263    1.000
    Si5351   Si       0.87309    0.43767    0.78243    1.000
    N5352    N        0.88648    0.28529    0.94537    1.000
    Si5353   Si       0.88819    0.29001    0.90139    1.000
    N5354    N        0.89183    0.33055    0.88866    1.000
    Si5355   Si       0.88642    0.29563    0.98757    1.000
    N5356    N        0.92875    0.27527    0.88865    1.000
    Si5357   Si       0.87449    0.46052    0.96049    1.000
    N5358    N        0.89344    0.43660    0.89171    1.000
    N5359    N        0.88613    0.49480    0.93515    1.000
    Si5360   Si       0.89790    0.40622    0.92213    1.000
    N5361    N        0.90320    0.42714    0.96117    1.000
    Si5362   Si       0.91347    0.47464    0.88751    1.000
    Si5363   Si       0.91005    0.60908    0.10266    1.000
    N5364    N        0.92072    0.61345    0.05991    1.000
    N5365    N        0.92411    0.56979    0.11311    1.000
    Si5366   Si       0.91258    0.62593    0.01859    1.000
    N5367    N        0.90460    0.58804    0.99835    1.000
    N5368    N        0.87594    0.53624    0.03015    1.000
    N5369    N        0.91333    0.68846    0.06542    1.000
    Si5370   Si       0.88765    0.69559    0.03283    1.000
    N5371    N        0.91080    0.72164    0.00524    1.000
    N5372    N        0.88158    0.65426    0.01743    1.000
    Si5373   Si       0.90287    0.75429    0.09758    1.000
    Si5374   Si       0.92606    0.62538    0.23382    1.000
    N5375    N        0.89298    0.52453    0.20553    1.000
    Si5376   Si       0.88925    0.56876    0.21266    1.000
    Si5377   Si       0.90208    0.54842    0.14372    1.000
    N5378    N        0.88402    0.57872    0.17085    1.000
    N5379    N        0.90318    0.64329    0.19956    1.000
    N5380    N        0.92897    0.63958    0.12681    1.000
    Si5381   Si       0.91507    0.66381    0.16367    1.000
    N5382    N        0.87750    0.68728    0.15715    1.000
    N5383    N        0.89555    0.74940    0.17990    1.000
    N5384    N        0.91330    0.58965    0.33680    1.000
    N5385    N        0.90922    0.61539    0.27421    1.000
    Si5386   Si       0.91451    0.50907    0.30703    1.000
    N5387    N        0.87362    0.52684    0.31063    1.000
    Si5388   Si       0.89114    0.71784    0.25200    1.000
    N5389    N        0.91357    0.69286    0.28073    1.000
    N5390    N        0.91483    0.66366    0.34780    1.000
    Si5391   Si       0.89341    0.68743    0.31846    1.000
    N5392    N        0.89516    0.72477    0.34206    1.000
    N5393    N        0.92202    0.54338    0.40174    1.000
    Si5394   Si       0.91154    0.55536    0.44227    1.000
    N5395    N        0.92133    0.52602    0.47072    1.000
    N5396    N        0.93029    0.58896    0.46617    1.000
    N5397    N        0.89189    0.64420    0.45941    1.000
    Si5398   Si       0.88150    0.68433    0.44763    1.000
    Si5399   Si       0.90178    0.64780    0.38586    1.000
    N5400    N        0.88894    0.68476    0.40514    1.000
    N5401    N        0.90935    0.70704    0.47105    1.000
    Si5402   Si       0.88375    0.58639    0.53599    1.000
    N5403    N        0.90897    0.56292    0.60731    1.000
    Si5404   Si       0.89595    0.60453    0.61554    1.000
    N5405    N        0.92388    0.56854    0.53645    1.000
    N5406    N        0.88306    0.63140    0.53197    1.000
    N5407    N        0.91545    0.63677    0.59524    1.000
    Si5408   Si       0.89687    0.65878    0.56256    1.000
    Si5409   Si       0.89384    0.71308    0.51159    1.000
    N5410    N        0.91777    0.68972    0.54226    1.000
    Si5411   Si       0.87320    0.75230    0.60912    1.000
    Si5412   Si       0.90173    0.52893    0.63133    1.000
    N5413    N        0.90110    0.61282    0.65817    1.000
    N5414    N        0.89754    0.54305    0.67215    1.000
    Si5415   Si       0.89837    0.51874    0.70817    1.000
    N5416    N        0.87903    0.54814    0.73489    1.000
    Si5417   Si       0.92204    0.57869    0.67412    1.000
    N5418    N        0.91499    0.74028    0.62268    1.000
    N5419    N        0.92754    0.67420    0.65568    1.000
    N5420    N        0.89420    0.65988    0.71710    1.000
    N5421    N        0.87891    0.71726    0.68635    1.000
    Si5422   Si       0.88039    0.70478    0.72676    1.000
    Si5423   Si       0.89369    0.65524    0.67217    1.000
    Si5424   Si       0.91305    0.73557    0.66686    1.000
    Si5425   Si       0.90677    0.62172    0.80155    1.000
    N5426    N        0.88437    0.60271    0.77006    1.000
    N5427    N        0.89151    0.52591    0.80959    1.000
    N5428    N        0.92517    0.59381    0.82855    1.000
    Si5429   Si       0.92603    0.55128    0.81471    1.000
    Si5430   Si       0.91008    0.57455    0.74968    1.000
    N5431    N        0.90957    0.70054    0.76068    1.000
    Si5432   Si       0.91143    0.72255    0.79755    1.000
    N5433    N        0.87655    0.64946    0.81473    1.000
    Si5434   Si       0.92033    0.70177    0.87016    1.000
    N5435    N        0.87216    0.73953    0.81012    1.000
    Si5436   Si       0.92696    0.66403    0.74653    1.000
    Si5437   Si       0.92306    0.52011    0.93864    1.000
    N5438    N        0.91638    0.56504    0.92720    1.000
    Si5439   Si       0.87604    0.57847    0.93779    1.000
    N5440    N        0.92874    0.52305    0.98180    1.000
    N5441    N        0.87277    0.62106    0.93456    1.000
    N5442    N        0.90444    0.74294    0.87394    1.000
    N5443    N        0.90590    0.68594    0.95040    1.000
    N5444    N        0.89516    0.66894    0.88232    1.000
    Si5445   Si       0.90001    0.72612    0.96330    1.000
    Si5446   Si       0.88192    0.66285    0.92170    1.000
    Si5447   Si       0.91267    0.83123    0.10818    1.000
    N5448    N        0.90102    0.83539    0.06657    1.000
    Si5449   Si       0.89964    0.87272    0.04235    1.000
    N5450    N        0.90092    0.76480    0.05517    1.000
    Si5451   Si       0.87596    0.80235    0.05044    1.000
    N5452    N        0.93072    0.86624    0.01160    1.000
    Si5453   Si       0.91440    0.99800    0.01770    1.000
    N5454    N        0.90638    0.90923    0.06507    1.000
    N5455    N        0.88228    0.95002    0.11660    1.000
    N5456    N        0.90757    0.78932    0.12071    1.000
    Si5457   Si       0.88091    0.86472    0.24099    1.000
    N5458    N        0.88721    0.85708    0.13207    1.000
    Si5459   Si       0.89583    0.78974    0.16291    1.000
    N5460    N        0.91902    0.82417    0.17506    1.000
    N5461    N        0.91350    0.83508    0.24143    1.000
    Si5462   Si       0.92621    0.86621    0.15531    1.000
    N5463    N        0.91799    0.94625    0.20829    1.000
    Si5464   Si       0.92274    0.94931    0.12877    1.000
    Si5465   Si       0.91025    0.98702    0.19221    1.000
    Si5466   Si       0.89825    0.93269    0.24540    1.000
    N5467    N        0.90437    0.84831    0.31156    1.000
    Si5468   Si       0.91938    0.81850    0.33820    1.000
    N5469    N        0.92259    0.77783    0.32311    1.000
    Si5470   Si       0.88445    0.75893    0.31488    1.000
    Si5471   Si       0.92801    0.85894    0.27740    1.000
    N5472    N        0.91056    0.89467    0.26210    1.000
    N5473    N        0.88938    0.96468    0.33988    1.000
    N5474    N        0.90961    0.96512    0.27130    1.000
    Si5475   Si       0.88334    0.98213    0.30053    1.000
    Si5476   Si       0.90948    0.99099    0.36756    1.000
    N5477    N        0.89868    0.81288    0.37806    1.000
    Si5478   Si       0.87658    0.86554    0.46918    1.000
    N5479    N        0.88980    0.82549    0.48537    1.000
    Si5480   Si       0.88365    0.78374    0.47310    1.000
    Si5481   Si       0.90594    0.77699    0.40143    1.000
    N5482    N        0.91399    0.78583    0.44407    1.000
    Si5483   Si       0.90262    0.93613    0.45980    1.000
    N5484    N        0.90041    0.91250    0.38284    1.000
    N5485    N        0.90986    0.89396    0.46731    1.000
    N5486    N        0.89051    0.81132    0.55072    1.000
    N5487    N        0.90809    0.86266    0.58894    1.000
    Si5488   Si       0.91681    0.82673    0.52126    1.000
    N5489    N        0.87943    0.79454    0.61329    1.000
    Si5490   Si       0.87828    0.82979    0.58722    1.000
    N5491    N        0.88563    0.75667    0.50772    1.000
    Si5492   Si       0.88709    0.99740    0.49978    1.000
    Si5493   Si       0.92101    0.88911    0.55785    1.000
    N5494    N        0.91442    0.96873    0.58157    1.000
    N5495    N        0.88439    0.91469    0.55541    1.000
    Si5496   Si       0.88086    0.94247    0.59015    1.000
    Si5497   Si       0.89696    0.00625    0.57336    1.000
    N5498    N        0.88438    0.95255    0.49654    1.000
    N5499    N        0.90292    0.77859    0.67604    1.000
    N5500    N        0.90176    0.84568    0.65133    1.000
    Si5501   Si       0.91084    0.80434    0.64319    1.000
    N5502    N        0.88167    0.76165    0.74281    1.000
    Si5503   Si       0.87006    0.78104    0.70348    1.000
    N5504    N        0.87115    0.82556    0.71098    1.000
    Si5505   Si       0.91313    0.88067    0.62729    1.000
    Si5506   Si       0.87415    0.92826    0.66812    1.000
    N5507    N        0.87581    0.89349    0.69186    1.000
    N5508    N        0.89519    0.95896    0.69245    1.000
    N5509    N        0.88818    0.91879    0.62818    1.000
    N5510    N        0.90055    0.81460    0.77827    1.000
    N5511    N        0.90221    0.86391    0.82560    1.000
    N5512    N        0.90441    0.79766    0.84664    1.000
    Si5513   Si       0.91661    0.82554    0.81624    1.000
    Si5514   Si       0.91858    0.77854    0.75722    1.000
    Si5515   Si       0.87671    0.76564    0.84562    1.000
    N5516    N        0.87556    0.87578    0.76012    1.000
    Si5517   Si       0.89082    0.84001    0.74602    1.000
    Si5518   Si       0.89695    0.88754    0.86351    1.000
    Si5519   Si       0.89725    0.89236    0.79352    1.000
    Si5520   Si       0.90622    0.94991    0.84064    1.000
    N5521    N        0.87981    0.92731    0.81299    1.000
    N5522    N        0.88189    0.97470    0.86519    1.000
    N5523    N        0.92731    0.91829    0.86067    1.000
    N5524    N        0.88770    0.00342    0.75081    1.000
    Si5525   Si       0.93183    0.77669    0.87582    1.000
    Si5526   Si       0.91850    0.85164    0.97198    1.000
    N5527    N        0.90423    0.86605    0.90019    1.000
    N5528    N        0.87988    0.87010    0.96731    1.000
    N5529    N        0.90833    0.81233    0.95966    1.000
    N5530    N        0.87990    0.92671    0.93154    1.000
    Si5531   Si       0.90687    0.95311    0.95502    1.000
    N5532    N        0.89540    0.97121    0.99101    1.000
    N5533    N        0.90977    0.98701    0.92715    1.000
    Si5534   Si       0.96327    0.05282    0.03163    1.000
    N5535    N        0.94002    0.02945    0.00128    1.000
    N5536    N        0.98421    0.02371    0.05816    1.000
    N5537    N        0.98550    0.08080    0.00703    1.000
    N5538    N        0.97302    0.13559    0.07950    1.000
    N5539    N        0.97029    0.24723    0.09689    1.000
    N5540    N        0.94515    0.14480    0.01243    1.000
    Si5541   Si       0.97427    0.22570    0.01806    1.000
    Si5542   Si       0.97125    0.20389    0.09457    1.000
    N5543    N        0.97718    0.19671    0.05198    1.000
    Si5544   Si       0.97951    0.15403    0.04106    1.000
    N5545    N        0.93216    0.18399    0.10210    1.000
    Si5546   Si       0.93292    0.14165    0.09638    1.000
    Si5547   Si       0.96341    0.09495    0.15091    1.000
    N5548    N        0.95133    0.08939    0.19374    1.000
    N5549    N        0.96447    0.05433    0.13695    1.000
    Si5550   Si       0.95963    0.12693    0.21178    1.000
    N5551    N        0.93260    0.12248    0.13501    1.000
    Si5552   Si       0.92878    0.05470    0.20895    1.000
    N5553    N        0.96736    0.25846    0.21989    1.000
    Si5554   Si       0.93134    0.23937    0.23079    1.000
    Si5555   Si       0.94960    0.10239    0.34707    1.000
    N5556    N        0.93949    0.08238    0.30804    1.000
    N5557    N        0.95048    0.12817    0.25387    1.000
    N5558    N        0.96218    0.01882    0.28709    1.000
    Si5559   Si       0.93316    0.03893    0.31140    1.000
    Si5560   Si       0.95234    0.16770    0.27120    1.000
    Si5561   Si       0.94608    0.19339    0.34185    1.000
    N5562    N        0.93546    0.16553    0.31068    1.000
    N5563    N        0.98526    0.24518    0.28411    1.000
    N5564    N        0.93228    0.19727    0.24732    1.000
    N5565    N        0.98660    0.20472    0.34105    1.000
    N5566    N        0.93556    0.02166    0.42367    1.000
    Si5567   Si       0.95523    0.10170    0.42732    1.000
    Si5568   Si       0.95386    0.03959    0.38614    1.000
    Si5569   Si       0.94317    0.04262    0.46423    1.000
    N5570    N        0.95380    0.08241    0.38807    1.000
    N5571    N        0.97407    0.07537    0.46217    1.000
    N5572    N        0.98102    0.01117    0.46860    1.000
    Si5573   Si       0.94024    0.22710    0.46132    1.000
    N5574    N        0.93980    0.17471    0.38074    1.000
    N5575    N        0.94083    0.18509    0.45176    1.000
    N5576    N        0.98200    0.13528    0.42000    1.000
    N5577    N        0.97900    0.24425    0.46713    1.000
    Si5578   Si       0.96225    0.17634    0.41639    1.000
    N5579    N        0.94806    0.14047    0.49754    1.000
    N5580    N        0.96300    0.09199    0.55333    1.000
    Si5581   Si       0.96053    0.01993    0.60121    1.000
    Si5582   Si       0.93655    0.12045    0.53339    1.000
    N5583    N        0.93429    0.02876    0.56663    1.000
    Si5584   Si       0.93988    0.18608    0.56823    1.000
    N5585    N        0.96808    0.19251    0.60496    1.000
    N5586    N        0.97398    0.18656    0.53935    1.000
    Si5587   Si       0.98520    0.16430    0.50350    1.000
    Si5588   Si       0.97957    0.15206    0.62063    1.000
    Si5589   Si       0.95703    0.01991    0.67693    1.000
    N5590    N        0.94117    0.03604    0.63545    1.000
    N5591    N        0.94260    0.10275    0.69751    1.000
    N5592    N        0.94277    0.13219    0.63038    1.000
    N5593    N        0.92980    0.03567    0.70754    1.000
    N5594    N        0.94518    0.22116    0.66753    1.000
    N5595    N        0.94414    0.25883    0.72853    1.000
    N5596    N        0.95155    0.19649    0.73591    1.000
    Si5597   Si       0.94958    0.13673    0.67263    1.000
    Si5598   Si       0.96425    0.22687    0.70544    1.000
    Si5599   Si       0.93082    0.15608    0.73522    1.000
    Si5600   Si       0.96171    0.22544    0.62872    1.000
    N5601    N        0.99166    0.15167    0.66180    1.000
    Si5602   Si       0.95826    0.11111    0.79442    1.000
    N5603    N        0.94818    0.02986    0.77838    1.000
    N5604    N        0.94402    0.03996    0.84438    1.000
    Si5605   Si       0.94037    0.12936    0.86623    1.000
    Si5606   Si       0.98875    0.03606    0.79137    1.000
    N5607    N        0.98789    0.08045    0.79757    1.000
    N5608    N        0.96079    0.13553    0.82954    1.000
    N5609    N        0.96458    0.13604    0.76044    1.000
    N5610    N        0.98109    0.24783    0.77855    1.000
    Si5611   Si       0.94301    0.22748    0.76490    1.000
    N5612    N        0.96019    0.22335    0.86117    1.000
    N5613    N        0.95704    0.03039    0.93320    1.000
    N5614    N        0.95971    0.09472    0.88910    1.000
    Si5615   Si       0.96376    0.11362    0.98736    1.000
    N5616    N        0.93496    0.09456    0.96456    1.000
    Si5617   Si       0.93323    0.05130    0.96408    1.000
    N5618    N        0.98662    0.20632    0.92796    1.000
    N5619    N        0.94427    0.16334    0.89321    1.000
    N5620    N        0.94725    0.20772    0.98996    1.000
    Si5621   Si       0.97648    0.19402    0.88795    1.000
    Si5622   Si       0.95527    0.22549    0.95153    1.000
    N5623    N        0.94793    0.34525    0.05458    1.000
    N5624    N        0.96390    0.26682    0.02960    1.000
    Si5625   Si       0.94233    0.26434    0.06844    1.000
    Si5626   Si       0.93245    0.35061    0.01289    1.000
    N5627    N        0.96936    0.43930    0.00567    1.000
    N5628    N        0.96986    0.44852    0.08337    1.000
    Si5629   Si       0.96536    0.46351    0.04363    1.000
    Si5630   Si       0.94380    0.44771    0.11954    1.000
    N5631    N        0.99112    0.49982    0.03499    1.000
    Si5632   Si       0.96847    0.28378    0.18518    1.000
    N5633    N        0.96327    0.32381    0.20223    1.000
    N5634    N        0.93611    0.34630    0.13463    1.000
    Si5635   Si       0.96241    0.37988    0.13642    1.000
    N5636    N        0.93230    0.41170    0.13978    1.000
    Si5637   Si       0.93791    0.48976    0.17615    1.000
    N5638    N        0.96457    0.46581    0.15309    1.000
    N5639    N        0.93673    0.40596    0.20706    1.000
    N5640    N        0.95088    0.48919    0.21880    1.000
    Si5641   Si       0.97801    0.40064    0.20083    1.000
    N5642    N        0.95823    0.29597    0.31793    1.000
    Si5643   Si       0.96422    0.37210    0.34028    1.000
    N5644    N        0.98111    0.35922    0.30360    1.000
    Si5645   Si       0.94749    0.25592    0.30469    1.000
    N5646    N        0.96627    0.41726    0.33891    1.000
    N5647    N        0.94907    0.41722    0.27484    1.000
    Si5648   Si       0.95078    0.44483    0.30917    1.000
    N5649    N        0.97879    0.47617    0.31656    1.000
    Si5650   Si       0.96971    0.49718    0.35352    1.000
    Si5651   Si       0.98574    0.39281    0.27851    1.000
    N5652    N        0.95953    0.30094    0.42764    1.000
    Si5653   Si       0.94452    0.32889    0.45882    1.000
    N5654    N        0.97685    0.36181    0.45676    1.000
    Si5655   Si       0.94041    0.27333    0.40006    1.000
    Si5656   Si       0.98320    0.27944    0.49282    1.000
    N5657    N        0.98260    0.26292    0.38548    1.000
    N5658    N        0.94573    0.30343    0.49424    1.000
    Si5659   Si       0.96772    0.45959    0.42024    1.000
    Si5660   Si       0.96314    0.40066    0.47292    1.000
    N5661    N        0.94817    0.47549    0.38406    1.000
    N5662    N        0.98397    0.49371    0.44406    1.000
    N5663    N        0.94629    0.43175    0.44712    1.000
    Si5664   Si       0.96184    0.35596    0.57783    1.000
    N5665    N        0.97914    0.31676    0.58484    1.000
    N5666    N        0.95592    0.26186    0.60767    1.000
    N5667    N        0.94737    0.38552    0.60880    1.000
    N5668    N        0.94982    0.49029    0.51158    1.000
    N5669    N        0.95651    0.43838    0.56196    1.000
    Si5670   Si       0.94018    0.48002    0.55409    1.000
    Si5671   Si       0.97854    0.28135    0.74364    1.000
    Si5672   Si       0.97387    0.29904    0.62429    1.000
    N5673    N        0.94354    0.32258    0.64682    1.000
    Si5674   Si       0.93249    0.36658    0.65042    1.000
    Si5675   Si       0.97905    0.40197    0.63578    1.000
    N5676    N        0.98620    0.49130    0.68341    1.000
    N5677    N        0.95922    0.39266    0.67373    1.000
    N5678    N        0.96418    0.43503    0.73239    1.000
    Si5679   Si       0.98420    0.40376    0.70805    1.000
    N5680    N        0.98298    0.44521    0.62799    1.000
    Si5681   Si       0.94595    0.46457    0.63985    1.000
    Si5682   Si       0.95648    0.47236    0.70877    1.000
    N5683    N        0.96263    0.31015    0.77283    1.000
    Si5684   Si       0.96645    0.35456    0.76743    1.000
    Si5685   Si       0.96516    0.28077    0.80315    1.000
    N5686    N        0.94641    0.34918    0.84702    1.000
    N5687    N        0.98751    0.36709    0.80461    1.000
    Si5688   Si       0.98819    0.33619    0.83630    1.000
    N5689    N        0.92989    0.37516    0.75950    1.000
    N5690    N        0.97131    0.43426    0.81035    1.000
    Si5691   Si       0.96324    0.39611    0.83376    1.000
    N5692    N        0.94138    0.46834    0.85356    1.000
    Si5693   Si       0.98421    0.45310    0.85351    1.000
    N5694    N        0.97764    0.41298    0.87135    1.000
    N5695    N        0.98468    0.49119    0.76876    1.000
    Si5696   Si       0.98624    0.44787    0.76912    1.000
    N5697    N        0.96745    0.32551    0.90929    1.000
    Si5698   Si       0.96736    0.28149    0.91133    1.000
    N5699    N        0.96533    0.26793    0.95380    1.000
    Si5700   Si       0.96343    0.29214    0.99160    1.000
    Si5701   Si       0.93321    0.34422    0.88851    1.000
    N5702    N        0.95286    0.37895    0.98496    1.000
    Si5703   Si       0.98104    0.47610    0.92599    1.000
    Si5704   Si       0.97036    0.40229    0.91334    1.000
    N5705    N        0.93203    0.38317    0.90956    1.000
    Si5706   Si       0.94377    0.42015    0.97442    1.000
    N5707    N        0.96643    0.43594    0.93921    1.000
    N5708    N        0.94799    0.49754    0.90918    1.000
    N5709    N        0.95173    0.55963    0.03528    1.000
    Si5710   Si       0.96017    0.59693    0.05771    1.000
    N5711    N        0.97761    0.60226    0.09557    1.000
    Si5712   Si       0.96125    0.52496    0.05626    1.000
    N5713    N        0.98228    0.53285    0.09503    1.000
    Si5714   Si       0.93888    0.56217    0.99343    1.000
    N5715    N        0.96375    0.73633    0.04899    1.000
    Si5716   Si       0.94951    0.70658    0.07764    1.000
    N5717    N        0.97787    0.67561    0.08651    1.000
    Si5718   Si       0.96981    0.64185    0.11219    1.000
    N5719    N        0.93803    0.73440    0.10973    1.000
    Si5720   Si       0.93060    0.75234    0.02549    1.000
    Si5721   Si       0.99153    0.64209    0.00484    1.000
    N5722    N        0.94773    0.64384    0.99878    1.000
    Si5723   Si       0.96863    0.56531    0.12076    1.000
    N5724    N        0.92998    0.58310    0.21850    1.000
    N5725    N        0.97980    0.54753    0.22041    1.000
    N5726    N        0.97986    0.58280    0.15800    1.000
    Si5727   Si       0.95659    0.56325    0.18779    1.000
    N5728    N        0.93833    0.53124    0.16221    1.000
    N5729    N        0.95596    0.65449    0.24127    1.000
    Si5730   Si       0.97330    0.74679    0.13232    1.000
    N5731    N        0.94605    0.69441    0.17118    1.000
    Si5732   Si       0.93519    0.73294    0.18716    1.000
    Si5733   Si       0.98965    0.68612    0.16831    1.000
    N5734    N        0.93025    0.72599    0.23100    1.000
    N5735    N        0.97095    0.58225    0.28523    1.000
    Si5736   Si       0.95302    0.56175    0.25205    1.000
    Si5737   Si       0.93820    0.60981    0.30522    1.000
    N5738    N        0.93779    0.52525    0.34021    1.000
    Si5739   Si       0.93568    0.56219    0.36310    1.000
    N5740    N        0.97420    0.58097    0.36854    1.000
    N5741    N        0.92863    0.53091    0.26954    1.000
    N5742    N        0.96567    0.64232    0.31279    1.000
    N5743    N        0.96555    0.71360    0.33435    1.000
    Si5744   Si       0.95767    0.67044    0.34550    1.000
    Si5745   Si       0.94792    0.69416    0.25488    1.000
    Si5746   Si       0.93738    0.74260    0.34684    1.000
    N5747    N        0.98453    0.71164    0.26794    1.000
    Si5748   Si       0.97428    0.61718    0.39301    1.000
    Si5749   Si       0.96424    0.51434    0.47883    1.000
    N5750    N        0.98201    0.55134    0.49224    1.000
    N5751    N        0.93460    0.62831    0.40673    1.000
    Si5752   Si       0.93159    0.62948    0.44975    1.000
    N5753    N        0.95740    0.65736    0.46979    1.000
    N5754    N        0.93941    0.75288    0.38929    1.000
    N5755    N        0.98664    0.65655    0.37569    1.000
    N5756    N        0.97848    0.71813    0.43890    1.000
    Si5757   Si       0.95015    0.69767    0.46596    1.000
    N5758    N        0.95285    0.51841    0.57132    1.000
    N5759    N        0.97537    0.57415    0.58574    1.000
    N5760    N        0.97418    0.61118    0.52432    1.000
    Si5761   Si       0.93560    0.55899    0.57576    1.000
    Si5762   Si       0.94999    0.58005    0.50454    1.000
    N5763    N        0.96800    0.68473    0.59611    1.000
    Si5764   Si       0.95753    0.70174    0.55709    1.000
    N5765    N        0.95919    0.74915    0.56439    1.000
    Si5766   Si       0.98140    0.65001    0.50798    1.000
    N5767    N        0.98496    0.69000    0.52493    1.000
    Si5768   Si       0.94552    0.65526    0.62047    1.000
    Si5769   Si       0.98554    0.58282    0.62717    1.000
    N5770    N        0.96322    0.56487    0.66508    1.000
    Si5771   Si       0.97396    0.58413    0.70327    1.000
    Si5772   Si       0.97359    0.52256    0.65792    1.000
    N5773    N        0.96879    0.62215    0.63300    1.000
    N5774    N        0.93861    0.51045    0.72197    1.000
    N5775    N        0.93415    0.58855    0.71532    1.000
    N5776    N        0.93859    0.50778    0.63725    1.000
    Si5777   Si       0.95815    0.68757    0.68520    1.000
    Si5778   Si       0.97341    0.75480    0.71184    1.000
    N5779    N        0.96340    0.67222    0.72581    1.000
    N5780    N        0.94870    0.72900    0.68959    1.000
    Si5781   Si       0.96173    0.59496    0.85105    1.000
    N5782    N        0.94981    0.54094    0.84707    1.000
    N5783    N        0.94019    0.55372    0.77409    1.000
    Si5784   Si       0.96810    0.52950    0.74933    1.000
    Si5785   Si       0.97189    0.51255    0.86874    1.000
    N5786    N        0.96388    0.64116    0.85162    1.000
    Si5787   Si       0.95688    0.66515    0.81606    1.000
    N5788    N        0.93728    0.64494    0.78429    1.000
    N5789    N        0.93737    0.75782    0.79036    1.000
    N5790    N        0.93113    0.69790    0.82851    1.000
    N5791    N        0.97560    0.59292    0.89438    1.000
    Si5792   Si       0.95065    0.59341    0.92987    1.000
    N5793    N        0.96993    0.57747    0.96649    1.000
    Si5794   Si       0.97121    0.64996    0.89553    1.000
    N5795    N        0.97850    0.69115    0.96189    1.000
    Si5796   Si       0.96866    0.71913    0.92825    1.000
    N5797    N        0.93524    0.74400    0.94517    1.000
    Si5798   Si       0.94262    0.66587    0.96246    1.000
    N5799    N        0.95494    0.69146    0.89789    1.000
    N5800    N        0.94692    0.63549    0.92997    1.000
    Si5801   Si       0.97299    0.87167    0.02404    1.000
    N5802    N        0.98751    0.85235    0.06055    1.000
    N5803    N        0.94960    0.84870    0.12084    1.000
    N5804    N        0.94887    0.77970    0.99904    1.000
    N5805    N        0.97436    0.91401    0.03657    1.000
    N5806    N        0.95291    0.95033    0.09681    1.000
    Si5807   Si       0.94301    0.93233    0.05656    1.000
    Si5808   Si       0.95595    0.99347    0.08031    1.000
    N5809    N        0.94007    0.97416    0.04290    1.000
    N5810    N        0.96229    0.76354    0.17215    1.000
    N5811    N        0.98073    0.81843    0.21515    1.000
    N5812    N        0.94491    0.87647    0.19551    1.000
    Si5813   Si       0.94158    0.83495    0.20942    1.000
    N5814    N        0.92801    0.91125    0.14818    1.000
    Si5815   Si       0.94405    0.91912    0.18830    1.000
    N5816    N        0.93021    0.98534    0.15308    1.000
    N5817    N        0.98373    0.93405    0.18797    1.000
    N5818    N        0.96962    0.84799    0.27913    1.000
    N5819    N        0.96035    0.83228    0.34463    1.000
    Si5820   Si       0.98736    0.85096    0.31798    1.000
    Si5821   Si       0.94117    0.99232    0.25743    1.000
    N5822    N        0.98204    0.97731    0.24532    1.000
    N5823    N        0.96075    0.84488    0.45689    1.000
    Si5824   Si       0.94757    0.80493    0.46594    1.000
    N5825    N        0.98125    0.78616    0.44476    1.000
    Si5826   Si       0.94743    0.87917    0.48325    1.000
    Si5827   Si       0.97670    0.75521    0.41239    1.000
    N5828    N        0.93750    0.94833    0.43851    1.000
    Si5829   Si       0.93927    0.93042    0.39585    1.000
    N5830    N        0.98199    0.90447    0.49337    1.000
    N5831    N        0.94786    0.97070    0.37859    1.000
    Si5832   Si       0.96260    0.98504    0.43646    1.000
    N5833    N        0.97583    0.90803    0.38454    1.000
    N5834    N        0.94907    0.79953    0.50810    1.000
    Si5835   Si       0.97535    0.77399    0.53199    1.000
    N5836    N        0.98728    0.85591    0.59795    1.000
    N5837    N        0.93026    0.86719    0.52288    1.000
    Si5838   Si       0.95585    0.75733    0.60881    1.000
    N5839    N        0.97150    0.96690    0.53196    1.000
    N5840    N        0.95676    0.91388    0.56642    1.000
    Si5841   Si       0.95522    0.95790    0.57218    1.000
    N5842    N        0.97835    0.98004    0.60273    1.000
    Si5843   Si       0.97714    0.89746    0.60134    1.000
    Si5844   Si       0.96685    0.00337    0.51046    1.000
    Si5845   Si       0.98546    0.92374    0.53108    1.000
    N5846    N        0.95082    0.79992    0.62618    1.000
    Si5847   Si       0.96507    0.82710    0.71232    1.000
    N5848    N        0.94876    0.78765    0.72705    1.000
    N5849    N        0.97530    0.84756    0.67385    1.000
    Si5850   Si       0.98102    0.83032    0.63491    1.000
    N5851    N        0.93038    0.85256    0.72624    1.000
    N5852    N        0.95057    0.91193    0.70511    1.000
    Si5853   Si       0.97462    0.89437    0.67308    1.000
    N5854    N        0.94432    0.97321    0.74000    1.000
    N5855    N        0.95311    0.89749    0.63626    1.000
    Si5856   Si       0.94332    0.88938    0.74097    1.000
    N5857    N        0.96006    0.97774    0.66989    1.000
    Si5858   Si       0.93860    0.95476    0.69985    1.000
    N5859    N        0.96022    0.82242    0.81627    1.000
    Si5860   Si       0.96815    0.77883    0.81258    1.000
    N5861    N        0.96800    0.76483    0.85357    1.000
    Si5862   Si       0.98661    0.84797    0.83886    1.000
    N5863    N        0.98304    0.87974    0.75762    1.000
    Si5864   Si       0.94570    0.95371    0.77914    1.000
    Si5865   Si       0.95924    0.99890    0.84237    1.000
    N5866    N        0.98628    0.89120    0.83054    1.000
    Si5867   Si       0.96569    0.89934    0.86957    1.000
    N5868    N        0.93099    0.91230    0.77587    1.000
    N5869    N        0.93495    0.97412    0.81629    1.000
    N5870    N        0.98854    0.94836    0.78526    1.000
    Si5871   Si       0.94359    0.78705    0.95163    1.000
    N5872    N        0.95516    0.85508    0.94887    1.000
    Si5873   Si       0.94068    0.84407    0.90847    1.000
    N5874    N        0.96947    0.85444    0.87754    1.000
    N5875    N        0.94089    0.80062    0.90903    1.000
    N5876    N        0.99090    0.79770    0.95694    1.000
    N5877    N        0.96248    0.97974    0.88089    1.000
    N5878    N        0.95238    0.94895    0.95553    1.000
    Si5879   Si       0.95223    0.98641    0.92515    1.000
