# CIF file generated by openbabel 3.1.1, see https://openbabel.org
data_I
_chemical_name_common '3.01-40.aims'
_cell_length_a 39.8842
_cell_length_b 39.8842
_cell_length_c 39.8842
_cell_angle_alpha 90
_cell_angle_beta 90
_cell_angle_gamma 90
loop_
    _atom_site_label
    _atom_site_type_symbol
    _atom_site_fract_x
    _atom_site_fract_y
    _atom_site_fract_z
    _atom_site_occupancy
    Si0      Si       0.04518    0.03471    0.05140    1.000
    N1       N        0.04307    0.02259    0.00876    1.000
    N2       N        0.01065    0.06325    0.06259    1.000
    N3       N        0.07185    0.06741    0.05794    1.000
    Si4      Si       0.16055    0.03679    0.03862    1.000
    N5       N        0.13049    0.02092    0.06818    1.000
    Si6      Si       0.12352    0.03445    0.11253    1.000
    N7       N        0.19259    0.05838    0.05833    1.000
    N8       N        0.13207    0.06636    0.01942    1.000
    Si9      Si       0.23494    0.06435    0.04959    1.000
    N10      N        0.18241    0.01062    0.00913    1.000
    N11      N        0.01902    0.04268    0.13668    1.000
    Si12     Si       0.01124    0.05088    0.21908    1.000
    N13      N        0.05175    0.04331    0.20103    1.000
    Si14     Si       0.05564    0.05587    0.15917    1.000
    N15      N        0.08375    0.03049    0.13539    1.000
    Si16     Si       0.07119    0.05883    0.23723    1.000
    Si17     Si       0.21436    0.03478    0.21985    1.000
    Si18     Si       0.18925    0.04324    0.14644    1.000
    N19      N        0.15258    0.01928    0.14024    1.000
    N20      N        0.18645    0.04712    0.19067    1.000
    N21      N        0.22498    0.02215    0.13227    1.000
    N22      N        0.00353    0.02271    0.29826    1.000
    Si23     Si       0.01465    0.06280    0.29629    1.000
    N24      N        0.01479    0.03689    0.36807    1.000
    N25      N        0.09445    0.02750    0.25598    1.000
    Si26     Si       0.17017    0.05867    0.34856    1.000
    N27      N        0.19586    0.04242    0.26066    1.000
    N28      N        0.19572    0.02506    0.33292    1.000
    N29      N        0.13593    0.02958    0.36276    1.000
    Si30     Si       0.18724    0.01313    0.29202    1.000
    Si31     Si       0.99367    0.04190    0.40727    1.000
    Si32     Si       0.00580    0.03376    0.47971    1.000
    N33      N        0.08935    0.03357    0.45485    1.000
    N34      N        0.02306    0.04602    0.43847    1.000
    Si35     Si       0.06122    0.06191    0.43515    1.000
    N36      N        0.07498    0.06276    0.39328    1.000
    Si37     Si       0.11668    0.06131    0.38772    1.000
    Si38     Si       0.12547    0.05399    0.46048    1.000
    N39      N        0.16015    0.02678    0.46608    1.000
    N40      N        0.06252    0.04261    0.56150    1.000
    N41      N        0.00243    0.04559    0.52443    1.000
    Si42     Si       0.10527    0.03637    0.55975    1.000
    Si43     Si       0.03379    0.01758    0.53907    1.000
    N44      N        0.10421    0.01343    0.52128    1.000
    Si45     Si       0.22054    0.05477    0.53992    1.000
    N46      N        0.18113    0.04696    0.52641    1.000
    Si47     Si       0.22352    0.01907    0.60670    1.000
    N48      N        0.18675    0.04382    0.61396    1.000
    Si49     Si       0.16024    0.00872    0.60838    1.000
    Si50     Si       0.18380    0.00943    0.50030    1.000
    N51      N        0.03048    0.03924    0.69399    1.000
    Si52     Si       0.03773    0.04095    0.65161    1.000
    N53      N        0.07992    0.04391    0.64190    1.000
    N54      N        0.98882    0.04103    0.74489    1.000
    Si55     Si       0.20035    0.03609    0.70296    1.000
    N56      N        0.17767    0.02902    0.73777    1.000
    N57      N        0.02349    0.03685    0.80404    1.000
    Si58     Si       0.05520    0.04559    0.77744    1.000
    Si59     Si       0.01457    0.02427    0.84527    1.000
    N60      N        0.09639    0.05044    0.79755    1.000
    N61      N        0.06251    0.01125    0.74989    1.000
    N62      N        0.22076    0.04844    0.83271    1.000
    Si63     Si       0.17735    0.04784    0.83280    1.000
    Si64     Si       0.12402    0.01521    0.80709    1.000
    N65      N        0.16578    0.00850    0.81600    1.000
    N66      N        0.01757    0.05407    0.87679    1.000
    N67      N        0.09322    0.03527    0.97218    1.000
    Si68     Si       0.05756    0.05599    0.98247    1.000
    Si69     Si       0.04745    0.05223    0.90741    1.000
    N70      N        0.08907    0.05913    0.89552    1.000
    Si71     Si       0.11662    0.02565    0.88061    1.000
    N72      N        0.15309    0.04844    0.87059    1.000
    Si73     Si       0.23431    0.05831    0.93097    1.000
    N74      N        0.21941    0.01966    0.94600    1.000
    N75      N        0.15884    0.05068    0.94201    1.000
    Si76     Si       0.21962    0.01775    0.98870    1.000
    Si77     Si       0.13178    0.06133    0.97461    1.000
    N78      N        0.03339    0.10705    0.10052    1.000
    Si79     Si       0.04010    0.09781    0.05840    1.000
    Si80     Si       0.10711    0.11280    0.00512    1.000
    Si81     Si       0.00871    0.07190    0.10447    1.000
    N82      N        0.06720    0.09590    0.99947    1.000
    Si83     Si       0.11177    0.08066    0.05962    1.000
    N84      N        0.11555    0.12465    0.04779    1.000
    Si85     Si       0.19504    0.08943    0.09037    1.000
    N86      N        0.12413    0.07544    0.10087    1.000
    N87      N        0.24098    0.10471    0.03374    1.000
    N88      N        0.09045    0.09597    0.22835    1.000
    N89      N        0.06539    0.09893    0.15941    1.000
    Si90     Si       0.09559    0.10732    0.18894    1.000
    N91      N        0.99192    0.07616    0.18916    1.000
    Si92     Si       0.14063    0.09910    0.13323    1.000
    N93      N        0.18182    0.08323    0.13139    1.000
    N94      N        0.20469    0.11259    0.19585    1.000
    N95      N        0.15595    0.09476    0.24128    1.000
    N96      N        0.13569    0.09084    0.17568    1.000
    Si97     Si       0.16995    0.08765    0.19977    1.000
    N98      N        0.10631    0.10600    0.29341    1.000
    Si99     Si       0.06491    0.11421    0.30465    1.000
    N100     N        0.04848    0.07682    0.32022    1.000
    Si101    Si       0.00883    0.11305    0.25766    1.000
    N102     N        0.03056    0.07249    0.25417    1.000
    Si103    Si       0.04470    0.06763    0.36259    1.000
    N104     N        0.13462    0.09091    0.36235    1.000
    N105     N        0.22187    0.10390    0.26759    1.000
    Si106    Si       0.13706    0.10974    0.32312    1.000
    N107     N        0.16979    0.08217    0.31086    1.000
    Si108    Si       0.18504    0.08370    0.27007    1.000
    Si109    Si       0.11911    0.11303    0.25392    1.000
    N110     N        0.02431    0.10497    0.37617    1.000
    N111     N        0.06812    0.10019    0.45658    1.000
    N112     N        0.00058    0.11926    0.44225    1.000
    Si113    Si       0.09015    0.11295    0.49228    1.000
    N114     N        0.20384    0.11297    0.43383    1.000
    Si115    Si       0.22836    0.09967    0.39902    1.000
    N116     N        0.13749    0.07437    0.42238    1.000
    N117     N        0.12308    0.08367    0.49356    1.000
    Si118    Si       0.16481    0.10252    0.40596    1.000
    N119     N        0.19489    0.07767    0.38027    1.000
    N120     N        0.06176    0.10443    0.52730    1.000
    Si121    Si       0.05348    0.08466    0.56732    1.000
    N122     N        0.01074    0.09339    0.57194    1.000
    N123     N        0.07980    0.10303    0.59771    1.000
    N124     N        0.99574    0.11451    0.51131    1.000
    Si125    Si       0.12225    0.10730    0.58721    1.000
    N126     N        0.21594    0.09218    0.56059    1.000
    Si127    Si       0.15306    0.08041    0.52618    1.000
    Si128    Si       0.22870    0.09321    0.60023    1.000
    N129     N        0.12648    0.07240    0.55983    1.000
    N130     N        0.16334    0.12230    0.52986    1.000
    N131     N        0.01882    0.07683    0.63722    1.000
    Si132    Si       0.09071    0.08626    0.63739    1.000
    N133     N        0.00297    0.10007    0.69923    1.000
    Si134    Si       0.02006    0.11314    0.66144    1.000
    N135     N        0.06530    0.10990    0.66414    1.000
    Si136    Si       0.08750    0.12674    0.69715    1.000
    Si137    Si       0.01514    0.06799    0.72443    1.000
    Si138    Si       0.16259    0.10376    0.70303    1.000
    Si139    Si       0.17143    0.07876    0.64051    1.000
    N140     N        0.13253    0.09385    0.62909    1.000
    N141     N        0.18536    0.11175    0.74093    1.000
    N142     N        0.12031    0.10071    0.70675    1.000
    N143     N        0.18159    0.06783    0.68166    1.000
    N144     N        0.19873    0.11071    0.62553    1.000
    N145     N        0.10394    0.10468    0.84291    1.000
    N146     N        0.03941    0.08111    0.75787    1.000
    Si147    Si       0.04110    0.12412    0.76296    1.000
    N148     N        0.99071    0.10693    0.83886    1.000
    Si149    Si       0.11897    0.08740    0.80576    1.000
    Si150    Si       0.18147    0.11220    0.78468    1.000
    N151     N        0.15963    0.07850    0.80494    1.000
    N152     N        0.22463    0.10520    0.78768    1.000
    Si153    Si       0.22935    0.12560    0.74851    1.000
    Si154    Si       0.00274    0.10010    0.95311    1.000
    Si155    Si       0.10704    0.09776    0.88415    1.000
    N156     N        0.99003    0.10670    0.91228    1.000
    N157     N        0.03350    0.06741    0.94852    1.000
    Si158    Si       0.23616    0.10829    0.87540    1.000
    N159     N        0.12529    0.10437    0.96748    1.000
    N160     N        0.14669    0.10474    0.90227    1.000
    N161     N        0.21232    0.08047    0.89943    1.000
    Si162    Si       0.17130    0.07091    0.90561    1.000
    N163     N        0.03413    0.13586    0.03887    1.000
    Si164    Si       0.03889    0.18043    0.04494    1.000
    N165     N        0.03746    0.18415    0.99940    1.000
    Si166    Si       0.05003    0.13956    0.99733    1.000
    N167     N        0.14679    0.18516    0.07422    1.000
    Si168    Si       0.12137    0.16923    0.04419    1.000
    N169     N        0.14934    0.18099    0.01124    1.000
    N170     N        0.22520    0.17178    0.02784    1.000
    Si171    Si       0.16443    0.15482    0.09792    1.000
    Si172    Si       0.22853    0.13879    0.05646    1.000
    N173     N        0.18792    0.12906    0.07418    1.000
    Si174    Si       0.04418    0.12929    0.13705    1.000
    N175     N        0.06598    0.16645    0.12864    1.000
    N176     N        0.00604    0.14209    0.16099    1.000
    N177     N        0.10215    0.15172    0.18835    1.000
    Si178    Si       0.10473    0.16572    0.14710    1.000
    Si179    Si       0.99124    0.18267    0.16690    1.000
    Si180    Si       0.12663    0.17627    0.21455    1.000
    Si181    Si       0.23287    0.17720    0.12868    1.000
    N182     N        0.13422    0.13941    0.12547    1.000
    N183     N        0.17237    0.17584    0.20160    1.000
    Si184    Si       0.21384    0.15722    0.20172    1.000
    N185     N        0.19111    0.17036    0.12816    1.000
    N186     N        0.22674    0.16818    0.24228    1.000
    Si187    Si       0.01541    0.16980    0.29625    1.000
    N188     N        0.07458    0.14202    0.33849    1.000
    N189     N        0.00967    0.16282    0.33880    1.000
    N190     N        0.03756    0.13665    0.28011    1.000
    Si191    Si       0.04102    0.14404    0.36700    1.000
    Si192    Si       0.09210    0.18384    0.34065    1.000
    N193     N        0.14978    0.14957    0.32516    1.000
    Si194    Si       0.15858    0.17341    0.36431    1.000
    Si195    Si       0.14156    0.17327    0.29088    1.000
    N196     N        0.12882    0.15580    0.25393    1.000
    N197     N        0.23516    0.15593    0.31130    1.000
    N198     N        0.03996    0.15564    0.48358    1.000
    N199     N        0.05157    0.15349    0.40919    1.000
    Si200    Si       0.04056    0.13320    0.44614    1.000
    Si201    Si       0.07431    0.18289    0.48652    1.000
    N202     N        0.17365    0.17020    0.47167    1.000
    Si203    Si       0.20873    0.14800    0.46021    1.000
    N204     N        0.15894    0.14461    0.39626    1.000
    N205     N        0.04415    0.16552    0.55161    1.000
    Si206    Si       0.08157    0.16882    0.57729    1.000
    Si207    Si       0.03162    0.13615    0.52184    1.000
    N208     N        0.10429    0.15409    0.49844    1.000
    N209     N        0.11666    0.14544    0.56891    1.000
    N210     N        0.22355    0.16159    0.55780    1.000
    Si211    Si       0.13601    0.15577    0.53009    1.000
    N212     N        0.22649    0.13567    0.49873    1.000
    Si213    Si       0.23629    0.17628    0.51928    1.000
    Si214    Si       0.24092    0.16742    0.59707    1.000
    Si215    Si       0.20583    0.12629    0.53836    1.000
    N216     N        0.06758    0.18413    0.61971    1.000
    N217     N        0.07265    0.13540    0.73561    1.000
    N218     N        0.01802    0.15638    0.66027    1.000
    N219     N        0.10033    0.16403    0.67678    1.000
    Si220    Si       0.05964    0.17684    0.66295    1.000
    N221     N        0.21472    0.18063    0.63187    1.000
    N222     N        0.14007    0.17075    0.73368    1.000
    Si223    Si       0.14111    0.17523    0.68973    1.000
    N224     N        0.17035    0.14110    0.67959    1.000
    Si225    Si       0.20632    0.14201    0.65453    1.000
    N226     N        0.08641    0.17439    0.84684    1.000
    Si227    Si       0.08964    0.14036    0.82040    1.000
    Si228    Si       0.01626    0.14284    0.83301    1.000
    Si229    Si       0.10431    0.15573    0.75497    1.000
    N230     N        0.00584    0.14697    0.75219    1.000
    N231     N        0.04846    0.13147    0.80512    1.000
    N232     N        0.99263    0.17325    0.81574    1.000
    Si233    Si       0.99219    0.18188    0.77266    1.000
    N234     N        0.11457    0.12764    0.78626    1.000
    Si235    Si       0.21198    0.16964    0.82548    1.000
    N236     N        0.18423    0.15510    0.79463    1.000
    N237     N        0.21700    0.14664    0.86213    1.000
    Si238    Si       0.16681    0.18178    0.76551    1.000
    N239     N        0.24327    0.16607    0.75175    1.000
    Si240    Si       0.98954    0.14840    0.90142    1.000
    N241     N        0.02524    0.15413    0.87400    1.000
    N242     N        0.09351    0.15335    0.99653    1.000
    N243     N        0.02568    0.13628    0.96036    1.000
    Si244    Si       0.06397    0.16641    0.88890    1.000
    Si245    Si       0.02539    0.17978    0.95393    1.000
    N246     N        0.09108    0.13256    0.90817    1.000
    N247     N        0.14444    0.16956    0.94567    1.000
    N248     N        0.21362    0.15807    0.93039    1.000
    Si249    Si       0.12675    0.13097    0.93330    1.000
    Si250    Si       0.18314    0.18670    0.94400    1.000
    Si251    Si       0.21524    0.17983    0.89159    1.000
    Si252    Si       0.12084    0.18491    0.97984    1.000
    N253     N        0.01901    0.19823    0.07869    1.000
    Si254    Si       0.04707    0.20149    0.11327    1.000
    Si255    Si       0.08155    0.23163    0.06035    1.000
    N256     N        0.06823    0.23687    0.10276    1.000
    N257     N        0.08174    0.18922    0.05171    1.000
    N258     N        0.05381    0.24502    0.03077    1.000
    N259     N        0.18797    0.22966    0.04790    1.000
    Si260    Si       0.15264    0.22877    0.07189    1.000
    Si261    Si       0.19003    0.19813    0.01690    1.000
    N262     N        0.10641    0.21539    0.22449    1.000
    Si263    Si       0.00200    0.23844    0.21601    1.000
    N264     N        0.01858    0.21157    0.14694    1.000
    N265     N        0.98892    0.19874    0.20871    1.000
    Si266    Si       0.17016    0.19116    0.15955    1.000
    N267     N        0.12886    0.19959    0.15437    1.000
    N268     N        0.18357    0.23168    0.16076    1.000
    N269     N        0.20162    0.24404    0.23871    1.000
    Si270    Si       0.13608    0.24252    0.15297    1.000
    Si271    Si       0.02556    0.21605    0.34090    1.000
    N272     N        0.03348    0.20941    0.29825    1.000
    Si273    Si       0.10439    0.22513    0.26923    1.000
    N274     N        0.10773    0.19687    0.30125    1.000
    N275     N        0.05820    0.19976    0.36422    1.000
    N276     N        0.19329    0.19555    0.35394    1.000
    N277     N        0.17948    0.19588    0.28460    1.000
    N278     N        0.12316    0.19959    0.36860    1.000
    Si279    Si       0.21091    0.20688    0.25507    1.000
    Si280    Si       0.21227    0.19229    0.31412    1.000
    N281     N        0.23773    0.22022    0.28923    1.000
    Si282    Si       0.05013    0.20076    0.41084    1.000
    N283     N        0.07790    0.20388    0.44595    1.000
    N284     N        0.00552    0.20145    0.42189    1.000
    N285     N        0.15814    0.24535    0.47955    1.000
    Si286    Si       0.23542    0.21707    0.43472    1.000
    N287     N        0.19695    0.23165    0.41863    1.000
    Si288    Si       0.20028    0.23329    0.37413    1.000
    Si289    Si       0.03122    0.20431    0.54137    1.000
    Si290    Si       0.07175    0.22665    0.60018    1.000
    N291     N        0.03703    0.23443    0.57371    1.000
    N292     N        0.05836    0.21735    0.50916    1.000
    N293     N        0.10075    0.20705    0.57289    1.000
    N294     N        0.99208    0.20139    0.52477    1.000
    N295     N        0.15220    0.19564    0.53017    1.000
    Si296    Si       0.13992    0.22312    0.56336    1.000
    N297     N        0.16558    0.22508    0.60098    1.000
    N298     N        0.21319    0.21137    0.50683    1.000
    Si299    Si       0.17207    0.20627    0.49437    1.000
    Si300    Si       0.02651    0.23991    0.67183    1.000
    Si301    Si       0.04982    0.21710    0.74058    1.000
    N302     N        0.04852    0.20847    0.69345    1.000
    N303     N        0.15709    0.21368    0.67734    1.000
    Si304    Si       0.18084    0.21171    0.64074    1.000
    Si305    Si       0.09191    0.21803    0.84493    1.000
    N306     N        0.01244    0.21966    0.76131    1.000
    N307     N        0.08165    0.19271    0.75996    1.000
    Si308    Si       0.10785    0.22573    0.77023    1.000
    N309     N        0.06492    0.23095    0.87615    1.000
    Si310    Si       0.15918    0.22026    0.82608    1.000
    N311     N        0.13301    0.22143    0.86114    1.000
    N312     N        0.19984    0.20930    0.84051    1.000
    N313     N        0.19663    0.21692    0.76430    1.000
    N314     N        0.14025    0.20243    0.79256    1.000
    Si315    Si       0.23674    0.23004    0.83206    1.000
    Si316    Si       0.24037    0.20655    0.76881    1.000
    N317     N        0.03337    0.23617    0.96279    1.000
    Si318    Si       0.06048    0.22127    0.99465    1.000
    N319     N        0.00632    0.23806    0.90809    1.000
    Si320    Si       0.04954    0.23052    0.91841    1.000
    N321     N        0.09803    0.21920    0.97211    1.000
    N322     N        0.05474    0.18815    0.92369    1.000
    Si323    Si       0.23996    0.23075    0.97285    1.000
    Si324    Si       0.15734    0.23731    0.89255    1.000
    N325     N        0.18483    0.20874    0.90630    1.000
    N326     N        0.20306    0.20699    0.97547    1.000
    Si327    Si       0.02334    0.27447    0.03321    1.000
    Si328    Si       0.12869    0.28314    0.02452    1.000
    Si329    Si       0.20501    0.26693    0.03656    1.000
    N330     N        0.17172    0.28926    0.01867    1.000
    N331     N        0.14660    0.25262    0.10808    1.000
    N332     N        0.23395    0.25913    0.00410    1.000
    N333     N        0.23905    0.28673    0.05866    1.000
    N334     N        0.20583    0.28174    0.11767    1.000
    N335     N        0.11979    0.24719    0.04876    1.000
    Si336    Si       0.08654    0.25226    0.20488    1.000
    Si337    Si       0.07219    0.26863    0.13061    1.000
    N338     N        0.02986    0.28050    0.14266    1.000
    N339     N        0.10438    0.28952    0.22236    1.000
    N340     N        0.04230    0.25500    0.20656    1.000
    Si341    Si       0.02250    0.29298    0.18727    1.000
    N342     N        0.09630    0.25470    0.16326    1.000
    Si343    Si       0.99843    0.24995    0.14463    1.000
    Si344    Si       0.16342    0.28813    0.12521    1.000
    N345     N        0.15022    0.28562    0.16743    1.000
    Si346    Si       0.23391    0.26544    0.21707    1.000
    Si347    Si       0.21799    0.25134    0.14622    1.000
    N348     N        0.16419    0.30118    0.24166    1.000
    Si349    Si       0.14208    0.30393    0.20432    1.000
    N350     N        0.03402    0.25811    0.33477    1.000
    N351     N        0.07527    0.25614    0.27501    1.000
    N352     N        0.09426    0.26932    0.36174    1.000
    Si353    Si       0.03405    0.25420    0.28771    1.000
    Si354    Si       0.10649    0.28570    0.26790    1.000
    N355     N        0.99657    0.25117    0.25618    1.000
    N356     N        0.02097    0.30120    0.28036    1.000
    Si357    Si       0.05209    0.26991    0.37317    1.000
    Si358    Si       0.98604    0.29308    0.25534    1.000
    N359     N        0.20283    0.28101    0.29871    1.000
    Si360    Si       0.17771    0.26694    0.26645    1.000
    N361     N        0.13716    0.25335    0.27428    1.000
    N362     N        0.16713    0.25826    0.36435    1.000
    Si363    Si       0.23837    0.25988    0.31139    1.000
    N364     N        0.23580    0.24733    0.35253    1.000
    N365     N        0.07684    0.27346    0.47266    1.000
    N366     N        0.05040    0.24820    0.41112    1.000
    Si367    Si       0.04418    0.25680    0.49599    1.000
    Si368    Si       0.08716    0.24763    0.43942    1.000
    N369     N        0.00804    0.24685    0.47177    1.000
    Si370    Si       0.00906    0.24583    0.42700    1.000
    Si371    Si       0.17833    0.29688    0.37665    1.000
    Si372    Si       0.16379    0.25918    0.43742    1.000
    N373     N        0.12601    0.25140    0.41821    1.000
    N374     N        0.17148    0.30073    0.42005    1.000
    Si375    Si       0.12665    0.24263    0.37416    1.000
    N376     N        0.02947    0.28688    0.52599    1.000
    Si377    Si       0.02002    0.27495    0.56862    1.000
    N378     N        0.09563    0.26446    0.59441    1.000
    N379     N        0.04350    0.30289    0.59269    1.000
    Si380    Si       0.06824    0.28456    0.62106    1.000
    Si381    Si       0.23489    0.29609    0.54818    1.000
    Si382    Si       0.15772    0.27670    0.51048    1.000
    Si383    Si       0.18914    0.26369    0.60877    1.000
    N384     N        0.14322    0.26352    0.55172    1.000
    N385     N        0.19937    0.28572    0.51377    1.000
    N386     N        0.21043    0.29254    0.58488    1.000
    Si387    Si       0.12979    0.28893    0.58398    1.000
    Si388    Si       0.22679    0.25220    0.50243    1.000
    N389     N        0.03114    0.27271    0.69768    1.000
    Si390    Si       0.07534    0.27845    0.71020    1.000
    Si391    Si       0.99413    0.29647    0.69890    1.000
    N392     N        0.10899    0.26963    0.68479    1.000
    N393     N        0.05148    0.24833    0.63790    1.000
    Si394    Si       0.14553    0.24968    0.70151    1.000
    N395     N        0.21044    0.24596    0.64267    1.000
    N396     N        0.15437    0.28917    0.62335    1.000
    N397     N        0.17589    0.28076    0.69836    1.000
    Si398    Si       0.12911    0.29978    0.65857    1.000
    Si399    Si       0.21271    0.27866    0.67298    1.000
    N400     N        0.02432    0.28137    0.79600    1.000
    Si401    Si       0.06559    0.27409    0.78869    1.000
    N402     N        0.03303    0.29324    0.86504    1.000
    N403     N        0.10734    0.28591    0.86466    1.000
    Si404    Si       0.99533    0.25693    0.77066    1.000
    N405     N        0.09275    0.24551    0.80930    1.000
    N406     N        0.07063    0.25586    0.74963    1.000
    Si407    Si       0.11937    0.28069    0.82261    1.000
    N408     N        0.19813    0.28932    0.76301    1.000
    N409     N        0.16033    0.26250    0.81325    1.000
    Si410    Si       0.17954    0.29007    0.84025    1.000
    Si411    Si       0.17266    0.25450    0.76876    1.000
    Si412    Si       0.23424    0.29573    0.78763    1.000
    N413     N        0.13789    0.24393    0.74340    1.000
    Si414    Si       0.06854    0.27530    0.88012    1.000
    N415     N        0.07203    0.26847    0.92272    1.000
    Si416    Si       0.00216    0.26726    0.95777    1.000
    Si417    Si       0.10283    0.25846    0.95336    1.000
    Si418    Si       0.99869    0.27588    0.88842    1.000
    N419     N        0.01208    0.29179    0.99320    1.000
    N420     N        0.10510    0.28151    0.98891    1.000
    N421     N        0.99633    0.29771    0.92588    1.000
    N422     N        0.17565    0.27644    0.88088    1.000
    N423     N        0.19648    0.30008    0.94650    1.000
    Si424    Si       0.23829    0.29766    0.93487    1.000
    N425     N        0.14040    0.25576    0.92952    1.000
    Si426    Si       0.16488    0.29173    0.92001    1.000
    Si427    Si       0.01848    0.34203    0.07315    1.000
    N428     N        0.01284    0.34155    0.11588    1.000
    N429     N        0.08403    0.30818    0.11491    1.000
    N430     N        0.99475    0.35490    0.03741    1.000
    Si431    Si       0.11413    0.33277    0.09042    1.000
    N432     N        0.03443    0.30566    0.05965    1.000
    N433     N        0.04178    0.35776    0.99354    1.000
    N434     N        0.11583    0.32125    0.04623    1.000
    Si435    Si       0.18568    0.35731    0.11589    1.000
    Si436    Si       0.13242    0.35331    0.01857    1.000
    N437     N        0.21486    0.34317    0.08480    1.000
    N438     N        0.21436    0.34015    0.00693    1.000
    N439     N        0.15159    0.32826    0.11051    1.000
    Si440    Si       0.23478    0.30654    0.09676    1.000
    Si441    Si       0.20439    0.35766    0.04620    1.000
    Si442    Si       0.05255    0.33169    0.13787    1.000
    Si443    Si       0.08677    0.33012    0.20941    1.000
    N444     N        0.05696    0.32134    0.18000    1.000
    N445     N        0.00594    0.31691    0.22132    1.000
    N446     N        0.06985    0.34768    0.24521    1.000
    Si447    Si       0.99056    0.35861    0.21326    1.000
    N448     N        0.23063    0.30532    0.23646    1.000
    N449     N        0.12681    0.34507    0.20083    1.000
    N450     N        0.07526    0.33731    0.35293    1.000
    Si451    Si       0.03166    0.33318    0.25366    1.000
    Si452    Si       0.10771    0.30797    0.34460    1.000
    N453     N        0.11667    0.31434    0.30095    1.000
    Si454    Si       0.13861    0.35078    0.28949    1.000
    N455     N        0.21135    0.32089    0.35817    1.000
    Si456    Si       0.20984    0.32472    0.31363    1.000
    N457     N        0.18646    0.34844    0.28677    1.000
    Si458    Si       0.19654    0.33089    0.24617    1.000
    N459     N        0.02501    0.30394    0.38367    1.000
    Si460    Si       0.03908    0.34391    0.37596    1.000
    N461     N        0.00355    0.34612    0.48198    1.000
    N462     N        0.10415    0.32937    0.43706    1.000
    Si463    Si       0.09764    0.31098    0.47606    1.000
    N464     N        0.04261    0.36087    0.41492    1.000
    Si465    Si       0.00859    0.36617    0.43987    1.000
    N466     N        0.13934    0.32007    0.37167    1.000
    N467     N        0.21379    0.34153    0.46331    1.000
    Si468    Si       0.14102    0.33299    0.41364    1.000
    Si469    Si       0.03007    0.34358    0.59015    1.000
    N470     N        0.01502    0.34867    0.54935    1.000
    Si471    Si       0.02863    0.32757    0.51273    1.000
    N472     N        0.00172    0.35758    0.62039    1.000
    N473     N        0.06986    0.33755    0.49865    1.000
    N474     N        0.17516    0.36226    0.52019    1.000
    N475     N        0.12294    0.32790    0.56758    1.000
    Si476    Si       0.13447    0.34672    0.53032    1.000
    Si477    Si       0.21119    0.32932    0.61395    1.000
    Si478    Si       0.19763    0.33035    0.50113    1.000
    N479     N        0.13404    0.31271    0.50028    1.000
    N480     N        0.23493    0.33595    0.52539    1.000
    Si481    Si       0.04985    0.35304    0.70190    1.000
    N482     N        0.00990    0.33612    0.69170    1.000
    N483     N        0.07890    0.32395    0.71730    1.000
    N484     N        0.09451    0.31519    0.63748    1.000
    Si485    Si       0.09048    0.35780    0.63128    1.000
    Si486    Si       0.11725    0.34222    0.71961    1.000
    N487     N        0.21119    0.33756    0.71777    1.000
    N488     N        0.14183    0.33298    0.68580    1.000
    Si489    Si       0.17846    0.31177    0.72961    1.000
    N490     N        0.18372    0.35626    0.63614    1.000
    N491     N        0.23212    0.31031    0.64620    1.000
    N492     N        0.03509    0.34909    0.81749    1.000
    Si493    Si       0.08019    0.34731    0.82224    1.000
    Si494    Si       0.01661    0.31059    0.82995    1.000
    N495     N        0.08775    0.34884    0.86596    1.000
    N496     N        0.09083    0.30937    0.80320    1.000
    Si497    Si       0.14429    0.34387    0.79581    1.000
    N498     N        0.14770    0.32077    0.83483    1.000
    Si499    Si       0.20741    0.35420    0.83027    1.000
    N500     N        0.21672    0.30973    0.82931    1.000
    N501     N        0.14318    0.32945    0.75143    1.000
    Si502    Si       0.12354    0.32468    0.87226    1.000
    Si503    Si       0.99417    0.33999    0.92396    1.000
    N504     N        0.03063    0.35769    0.91001    1.000
    Si505    Si       0.00377    0.33490    0.99592    1.000
    N506     N        0.14819    0.34184    0.98010    1.000
    Si507    Si       0.18466    0.31676    0.98518    1.000
    Si508    Si       0.13371    0.35662    0.94209    1.000
    N509     N        0.14238    0.32813    0.91121    1.000
    Si510    Si       0.07188    0.39292    0.09828    1.000
    N511     N        0.04411    0.37993    0.06753    1.000
    Si512    Si       0.02809    0.38362    0.02754    1.000
    N513     N        0.10363    0.38574    0.00662    1.000
    N514     N        0.10843    0.37668    0.08704    1.000
    N515     N        0.16810    0.39606    0.11100    1.000
    Si516    Si       0.14343    0.39666    0.07375    1.000
    N517     N        0.22744    0.39646    0.04311    1.000
    N518     N        0.16352    0.37013    0.04588    1.000
    Si519    Si       0.22861    0.41890    0.00760    1.000
    N520     N        0.07316    0.40635    0.20370    1.000
    Si521    Si       0.04456    0.39650    0.17051    1.000
    N522     N        0.06309    0.37430    0.13709    1.000
    N523     N        0.00874    0.37325    0.17732    1.000
    Si524    Si       0.05631    0.39004    0.24106    1.000
    N525     N        0.18996    0.35950    0.21506    1.000
    Si526    Si       0.14941    0.37763    0.21486    1.000
    Si527    Si       0.21971    0.37929    0.18888    1.000
    N528     N        0.14452    0.40792    0.18072    1.000
    N529     N        0.21136    0.36454    0.14955    1.000
    N530     N        0.23232    0.41987    0.19819    1.000
    Si531    Si       0.02541    0.40628    0.35238    1.000
    Si532    Si       0.09588    0.37543    0.35381    1.000
    N533     N        0.06910    0.40621    0.34163    1.000
    N534     N        0.00628    0.36806    0.35940    1.000
    N535     N        0.07365    0.41691    0.27052    1.000
    N536     N        0.01316    0.37539    0.24863    1.000
    N537     N        0.01541    0.41542    0.30879    1.000
    Si538    Si       0.99058    0.39625    0.28067    1.000
    Si539    Si       0.11571    0.42150    0.26572    1.000
    N540     N        0.13139    0.37574    0.32534    1.000
    Si541    Si       0.19725    0.39178    0.28123    1.000
    N542     N        0.13349    0.38079    0.25852    1.000
    N543     N        0.19427    0.41012    0.32118    1.000
    Si544    Si       0.15274    0.41255    0.33021    1.000
    N545     N        0.07759    0.39379    0.46029    1.000
    N546     N        0.10332    0.38318    0.39506    1.000
    N547     N        0.99544    0.40693    0.44647    1.000
    Si548    Si       0.08336    0.36555    0.42836    1.000
    N549     N        0.23529    0.36872    0.40365    1.000
    N550     N        0.16302    0.37049    0.41974    1.000
    N551     N        0.20896    0.41138    0.45268    1.000
    Si552    Si       0.20350    0.37266    0.43204    1.000
    Si553    Si       0.13799    0.40512    0.40687    1.000
    N554     N        0.04258    0.40311    0.51883    1.000
    Si555    Si       0.00627    0.39020    0.53946    1.000
    Si556    Si       0.05904    0.40989    0.58554    1.000
    N557     N        0.01639    0.41045    0.57606    1.000
    N558     N        0.06488    0.36673    0.59643    1.000
    N559     N        0.11308    0.38390    0.52166    1.000
    Si560    Si       0.07646    0.37997    0.50053    1.000
    N561     N        0.21994    0.41209    0.53624    1.000
    N562     N        0.15993    0.40155    0.57580    1.000
    Si563    Si       0.18788    0.38716    0.60739    1.000
    Si564    Si       0.17629    0.40576    0.53591    1.000
    Si565    Si       0.12601    0.41339    0.60091    1.000
    N566     N        0.21623    0.36018    0.58520    1.000
    Si567    Si       0.23577    0.37159    0.54818    1.000
    N568     N        0.00598    0.41203    0.66150    1.000
    N569     N        0.04334    0.39088    0.72057    1.000
    Si570    Si       0.04838    0.40880    0.66192    1.000
    N571     N        0.06355    0.36947    0.66447    1.000
    Si572    Si       0.00679    0.41248    0.73061    1.000
    N573     N        0.10848    0.38442    0.71968    1.000
    Si574    Si       0.08097    0.41927    0.72209    1.000
    N575     N        0.23905    0.39387    0.68375    1.000
    Si576    Si       0.20877    0.38068    0.71103    1.000
    N577     N        0.12429    0.38409    0.63487    1.000
    Si578    Si       0.15440    0.36904    0.66696    1.000
    N579     N        0.17122    0.39485    0.69803    1.000
    Si580    Si       0.14357    0.41061    0.72743    1.000
    Si581    Si       0.01699    0.38885    0.81151    1.000
    N582     N        0.11004    0.37229    0.80266    1.000
    N583     N        0.00417    0.41244    0.77560    1.000
    Si584    Si       0.11173    0.41477    0.79167    1.000
    N585     N        0.04599    0.41840    0.82401    1.000
    Si586    Si       0.18898    0.40317    0.78284    1.000
    N587     N        0.14982    0.41528    0.76975    1.000
    N588     N        0.19871    0.37345    0.86669    1.000
    N589     N        0.18209    0.36413    0.79760    1.000
    N590     N        0.21446    0.40123    0.74797    1.000
    Si591    Si       0.07309    0.38044    0.97473    1.000
    Si592    Si       0.07081    0.37116    0.90009    1.000
    N593     N        0.07032    0.41471    0.89382    1.000
    N594     N        0.09140    0.36772    0.93824    1.000
    N595     N        0.05559    0.41833    0.96714    1.000
    Si596    Si       0.21756    0.40826    0.88499    1.000
    N597     N        0.22204    0.41033    0.92770    1.000
    N598     N        0.15392    0.39274    0.93158    1.000
    Si599    Si       0.05057    0.45564    0.07169    1.000
    N600     N        0.07932    0.43741    0.09941    1.000
    N601     N        0.01030    0.44352    0.08656    1.000
    N602     N        0.06925    0.44270    0.03476    1.000
    Si603    Si       0.10972    0.42683    0.02325    1.000
    Si604    Si       0.04429    0.44484    0.99993    1.000
    N605     N        0.01192    0.42214    0.01735    1.000
    N606     N        0.13822    0.43491    0.05366    1.000
    Si607    Si       0.14773    0.47688    0.05376    1.000
    Si608    Si       0.10248    0.46238    0.12569    1.000
    N609     N        0.02690    0.43607    0.15879    1.000
    N610     N        0.09059    0.45964    0.16767    1.000
    Si611    Si       0.05044    0.46551    0.18155    1.000
    Si612    Si       0.99766    0.43946    0.12752    1.000
    Si613    Si       0.10882    0.43001    0.19431    1.000
    N614     N        0.06322    0.48202    0.22376    1.000
    N615     N        0.18160    0.47674    0.20303    1.000
    N616     N        0.14456    0.45403    0.12632    1.000
    Si617    Si       0.16878    0.45777    0.23954    1.000
    Si618    Si       0.21568    0.45862    0.18316    1.000
    N619     N        0.20469    0.45309    0.14209    1.000
    Si620    Si       0.23258    0.42523    0.24155    1.000
    N621     N        0.12448    0.45086    0.23413    1.000
    Si622    Si       0.16921    0.42184    0.14496    1.000
    Si623    Si       0.05664    0.43077    0.30635    1.000
    N624     N        0.06172    0.46956    0.32709    1.000
    N625     N        0.13675    0.43839    0.29977    1.000
    Si626    Si       0.22779    0.43209    0.33984    1.000
    N627     N        0.22778    0.46950    0.31772    1.000
    N628     N        0.18811    0.42001    0.24938    1.000
    N629     N        0.14711    0.42646    0.36964    1.000
    N630     N        0.24077    0.46764    0.24871    1.000
    Si631    Si       0.05677    0.46822    0.37167    1.000
    N632     N        0.09945    0.47612    0.38456    1.000
    N633     N        0.06668    0.46748    0.44257    1.000
    N634     N        0.02568    0.43657    0.38316    1.000
    Si635    Si       0.09097    0.43553    0.46004    1.000
    Si636    Si       0.99299    0.43732    0.41591    1.000
    N637     N        0.99944    0.47703    0.43235    1.000
    N638     N        0.22929    0.44160    0.38260    1.000
    N639     N        0.12999    0.43243    0.44046    1.000
    Si640    Si       0.14323    0.46981    0.37540    1.000
    N641     N        0.19182    0.47700    0.47176    1.000
    Si642    Si       0.21722    0.47871    0.40071    1.000
    Si643    Si       0.15909    0.46447    0.44555    1.000
    N644     N        0.17379    0.47565    0.40569    1.000
    Si645    Si       0.04792    0.44549    0.52017    1.000
    Si646    Si       0.00614    0.45396    0.57715    1.000
    N647     N        0.04412    0.46659    0.55780    1.000
    N648     N        0.08890    0.44636    0.50330    1.000
    N649     N        0.99829    0.47211    0.61713    1.000
    N650     N        0.09778    0.42310    0.57049    1.000
    N651     N        0.01822    0.46474    0.49502    1.000
    Si652    Si       0.11609    0.42792    0.53135    1.000
    N653     N        0.15620    0.44241    0.52088    1.000
    N654     N        0.22785    0.47498    0.61225    1.000
    N655     N        0.21599    0.48054    0.53428    1.000
    Si656    Si       0.17637    0.47810    0.51287    1.000
    Si657    Si       0.03656    0.47631    0.70078    1.000
    Si658    Si       0.08659    0.46080    0.64313    1.000
    N659     N        0.00499    0.45511    0.71806    1.000
    N660     N        0.06531    0.44481    0.68681    1.000
    N661     N        0.06275    0.42801    0.62619    1.000
    Si662    Si       0.16713    0.46357    0.62284    1.000
    N663     N        0.18735    0.42478    0.63247    1.000
    N664     N        0.22893    0.46135    0.68079    1.000
    Si665    Si       0.22591    0.42480    0.65523    1.000
    N666     N        0.12218    0.44606    0.71870    1.000
    N667     N        0.12562    0.45361    0.62256    1.000
    Si668    Si       0.04078    0.43942    0.78570    1.000
    Si669    Si       0.07077    0.43336    0.85479    1.000
    N670     N        0.99584    0.46411    0.85032    1.000
    N671     N        0.07767    0.42681    0.76645    1.000
    N672     N        0.11000    0.43688    0.82974    1.000
    N673     N        0.06096    0.47436    0.87020    1.000
    Si674    Si       0.19971    0.45789    0.83584    1.000
    Si675    Si       0.12867    0.47493    0.83696    1.000
    N676     N        0.21223    0.42553    0.81142    1.000
    N677     N        0.23123    0.48527    0.83761    1.000
    N678     N        0.01677    0.45513    0.91960    1.000
    Si679    Si       0.05655    0.43814    0.92697    1.000
    N680     N        0.08484    0.47029    0.93171    1.000
    Si681    Si       0.01979    0.47852    0.88258    1.000
    N682     N        0.12108    0.45009    0.98764    1.000
    N683     N        0.17023    0.46035    0.93865    1.000
    N684     N        0.19187    0.44465    0.87573    1.000
    Si685    Si       0.16358    0.46071    0.98254    1.000
    Si686    Si       0.17258    0.47565    0.89877    1.000
    Si687    Si       0.18363    0.41935    0.94337    1.000
    N688     N        0.19072    0.42342    0.98642    1.000
    N689     N        0.04311    0.49776    0.06548    1.000
    Si690    Si       0.08299    0.51773    0.07236    1.000
    Si691    Si       0.00608    0.51136    0.05443    1.000
    N692     N        0.09780    0.50418    0.11319    1.000
    N693     N        0.11414    0.50508    0.04659    1.000
    N694     N        0.17158    0.49734    0.08209    1.000
    Si695    Si       0.20320    0.51361    0.01872    1.000
    Si696    Si       0.13463    0.53025    0.01946    1.000
    N697     N        0.23463    0.51001    0.04824    1.000
    N698     N        0.17176    0.48341    0.01755    1.000
    N699     N        0.02354    0.50083    0.17807    1.000
    Si700    Si       0.03691    0.51561    0.21815    1.000
    N701     N        0.00108    0.52805    0.23768    1.000
    Si702    Si       0.10385    0.49103    0.24032    1.000
    N703     N        0.15823    0.51329    0.15062    1.000
    Si704    Si       0.17583    0.48497    0.12356    1.000
    N705     N        0.12901    0.51929    0.21684    1.000
    Si706    Si       0.12434    0.53299    0.13171    1.000
    Si707    Si       0.16570    0.51560    0.19360    1.000
    Si708    Si       0.07462    0.50977    0.31334    1.000
    Si709    Si       0.00150    0.52391    0.28163    1.000
    N710     N        0.10652    0.49978    0.28510    1.000
    N711     N        0.04599    0.52513    0.28487    1.000
    N712     N        0.22680    0.52891    0.27055    1.000
    Si713    Si       0.17892    0.52502    0.35793    1.000
    N714     N        0.15699    0.49126    0.34110    1.000
    Si715    Si       0.22194    0.48799    0.28183    1.000
    N716     N        0.17701    0.48454    0.27334    1.000
    Si717    Si       0.14209    0.48070    0.30087    1.000
    N718     N        0.03281    0.50502    0.38166    1.000
    Si719    Si       0.09711    0.49346    0.42539    1.000
    Si720    Si       0.99259    0.50530    0.39984    1.000
    N721     N        0.03438    0.53227    0.47123    1.000
    Si722    Si       0.03177    0.48746    0.46116    1.000
    N723     N        0.08800    0.53568    0.41554    1.000
    Si724    Si       0.23323    0.48856    0.47467    1.000
    Si725    Si       0.13639    0.52974    0.48123    1.000
    N726     N        0.21766    0.51700    0.38053    1.000
    N727     N        0.12952    0.49507    0.45375    1.000
    N728     N        0.24602    0.52824    0.48481    1.000
    Si729    Si       0.06708    0.49749    0.57660    1.000
    N730     N        0.10807    0.51138    0.56423    1.000
    N731     N        0.05185    0.53598    0.56206    1.000
    N732     N        0.17191    0.49095    0.58742    1.000
    Si733    Si       0.14320    0.52386    0.58773    1.000
    Si734    Si       0.21236    0.49300    0.57441    1.000
    N735     N        0.16534    0.52252    0.51165    1.000
    N736     N        0.06835    0.49660    0.61889    1.000
    N737     N        0.06459    0.49590    0.73037    1.000
    N738     N        0.03063    0.50852    0.67122    1.000
    Si739    Si       0.06939    0.51964    0.65629    1.000
    N740     N        0.10258    0.49437    0.67089    1.000
    Si741    Si       0.99889    0.50856    0.63974    1.000
    Si742    Si       0.10466    0.48495    0.71465    1.000
    Si743    Si       0.21890    0.49209    0.65164    1.000
    N744     N        0.13117    0.53651    0.62564    1.000
    N745     N        0.17517    0.49282    0.65519    1.000
    Si746    Si       0.14336    0.51818    0.67275    1.000
    N747     N        0.13907    0.51282    0.71772    1.000
    N748     N        0.09942    0.50703    0.82479    1.000
    N749     N        0.02431    0.52521    0.84244    1.000
    Si750    Si       0.04582    0.51456    0.76280    1.000
    Si751    Si       0.06732    0.51615    0.85274    1.000
    Si752    Si       0.00579    0.49456    0.82015    1.000
    N753     N        0.03225    0.48313    0.78944    1.000
    Si754    Si       0.17278    0.51793    0.80306    1.000
    N755     N        0.21049    0.51918    0.78306    1.000
    N756     N        0.16597    0.47819    0.81830    1.000
    N757     N        0.99875    0.51089    0.90762    1.000
    N758     N        0.08668    0.53117    0.88787    1.000
    Si759    Si       0.02378    0.51908    0.98467    1.000
    Si760    Si       0.09605    0.48978    0.89722    1.000
    N761     N        0.05289    0.48870    0.98966    1.000
    Si762    Si       0.09682    0.48378    0.97354    1.000
    N763     N        0.12341    0.51767    0.97832    1.000
    N764     N        0.21705    0.50741    0.97721    1.000
    N765     N        0.19470    0.51203    0.89908    1.000
    Si766    Si       0.20649    0.52548    0.93893    1.000
    N767     N        0.13285    0.47937    0.87931    1.000
    N768     N        0.07185    0.56065    0.06657    1.000
    Si769    Si       0.08911    0.58537    0.03283    1.000
    Si770    Si       0.04140    0.58057    0.09290    1.000
    N771     N        0.05449    0.58720    0.00859    1.000
    Si772    Si       0.01447    0.58830    0.02663    1.000
    N773     N        0.00479    0.59244    0.07339    1.000
    N774     N        0.00487    0.54197    0.01954    1.000
    N775     N        0.12538    0.57355    0.01242    1.000
    N776     N        0.14361    0.55647    0.10226    1.000
    N777     N        0.21175    0.55468    0.09118    1.000
    Si778    Si       0.16823    0.58902    0.02451    1.000
    N779     N        0.20891    0.59082    0.00769    1.000
    N780     N        0.17360    0.54428    0.03266    1.000
    Si781    Si       0.15727    0.59650    0.10754    1.000
    Si782    Si       0.17440    0.54050    0.07524    1.000
    N783     N        0.03357    0.56163    0.13172    1.000
    N784     N        0.06572    0.54875    0.22414    1.000
    Si785    Si       0.99785    0.57913    0.15152    1.000
    N786     N        0.10010    0.55492    0.16008    1.000
    Si787    Si       0.10571    0.55465    0.20463    1.000
    Si788    Si       0.06842    0.58427    0.14770    1.000
    Si789    Si       0.20349    0.55586    0.24342    1.000
    Si790    Si       0.20623    0.58132    0.17441    1.000
    N791     N        0.19011    0.55078    0.20341    1.000
    N792     N        0.11995    0.59322    0.21854    1.000
    N793     N        0.17464    0.59662    0.14845    1.000
    Si794    Si       0.09618    0.58120    0.32622    1.000
    N795     N        0.09179    0.58072    0.28232    1.000
    Si796    Si       0.05590    0.56463    0.26401    1.000
    N797     N        0.08238    0.54154    0.34218    1.000
    N798     N        0.02738    0.59637    0.25802    1.000
    N799     N        0.19862    0.55491    0.33505    1.000
    N800     N        0.16749    0.57224    0.26699    1.000
    Si801    Si       0.17840    0.58299    0.30889    1.000
    Si802    Si       0.23121    0.55678    0.36512    1.000
    N803     N        0.13962    0.59326    0.32381    1.000
    Si804    Si       0.12923    0.59424    0.26174    1.000
    Si805    Si       0.99213    0.54243    0.46450    1.000
    Si806    Si       0.06527    0.56409    0.48141    1.000
    N807     N        0.04091    0.57819    0.38859    1.000
    Si808    Si       0.99878    0.58195    0.40209    1.000
    Si809    Si       0.06019    0.53968    0.38233    1.000
    N810     N        0.11268    0.59757    0.40172    1.000
    Si811    Si       0.12666    0.55883    0.41402    1.000
    N812     N        0.23536    0.59734    0.38149    1.000
    Si813    Si       0.17274    0.59264    0.46619    1.000
    N814     N        0.14674    0.56072    0.45130    1.000
    N815     N        0.21571    0.58777    0.45139    1.000
    N816     N        0.15432    0.54162    0.38600    1.000
    Si817    Si       0.02161    0.56035    0.57855    1.000
    N818     N        0.09979    0.58167    0.55945    1.000
    N819     N        0.04779    0.58425    0.51686    1.000
    Si820    Si       0.00561    0.58943    0.51817    1.000
    N821     N        0.00455    0.54407    0.61486    1.000
    Si822    Si       0.08896    0.54397    0.54246    1.000
    N823     N        0.09811    0.54294    0.49805    1.000
    Si824    Si       0.18298    0.55766    0.53189    1.000
    N825     N        0.22464    0.56834    0.53364    1.000
    N826     N        0.16271    0.55907    0.57188    1.000
    Si827    Si       0.13572    0.59222    0.58206    1.000
    Si828    Si       0.01233    0.57744    0.73535    1.000
    N829     N        0.07950    0.55995    0.66058    1.000
    N830     N        0.05024    0.58746    0.71905    1.000
    Si831    Si       0.12021    0.56926    0.64852    1.000
    Si832    Si       0.14486    0.55005    0.73930    1.000
    N833     N        0.15167    0.56187    0.67919    1.000
    Si834    Si       0.18379    0.58521    0.69775    1.000
    N835     N        0.18790    0.56487    0.73463    1.000
    N836     N        0.11949    0.58635    0.73800    1.000
    N837     N        0.22030    0.58315    0.67508    1.000
    Si838    Si       0.00663    0.56512    0.84941    1.000
    N839     N        0.07376    0.54803    0.77485    1.000
    N840     N        0.10831    0.57686    0.83031    1.000
    Si841    Si       0.07722    0.58760    0.75324    1.000
    Si842    Si       0.10695    0.54284    0.80189    1.000
    N843     N        0.01090    0.54072    0.75730    1.000
    N844     N        0.03446    0.59313    0.82942    1.000
    Si845    Si       0.14559    0.58046    0.85093    1.000
    N846     N        0.17128    0.54425    0.83971    1.000
    Si847    Si       0.22180    0.54427    0.74951    1.000
    N848     N        0.14135    0.53449    0.77977    1.000
    N849     N        0.24152    0.54590    0.84545    1.000
    Si850    Si       0.05753    0.58241    0.96570    1.000
    N851     N        0.02861    0.55161    0.95616    1.000
    Si852    Si       0.09857    0.56754    0.90470    1.000
    N853     N        0.09546    0.57072    0.94709    1.000
    N854     N        0.00661    0.57434    0.89381    1.000
    Si855    Si       0.99412    0.54919    0.92529    1.000
    N856     N        0.17342    0.55333    0.95042    1.000
    N857     N        0.13923    0.57782    0.89273    1.000
    Si858    Si       0.13363    0.56187    0.96709    1.000
    N859     N        0.20367    0.58241    0.89115    1.000
    Si860    Si       0.17024    0.58911    0.92155    1.000
    Si861    Si       0.20373    0.54269    0.86830    1.000
    Si862    Si       0.09658    0.63743    0.09315    1.000
    N863     N        0.09414    0.62603    0.05126    1.000
    N864     N        0.07024    0.60811    0.11325    1.000
    N865     N        0.99936    0.62206    0.00335    1.000
    N866     N        0.13278    0.63073    0.11626    1.000
    Si867    Si       0.16065    0.64572    0.05435    1.000
    N868     N        0.15630    0.63489    0.01296    1.000
    N869     N        0.16779    0.60399    0.06634    1.000
    N870     N        0.06679    0.61270    0.17969    1.000
    Si871    Si       0.03250    0.63845    0.17339    1.000
    Si872    Si       0.09983    0.62983    0.20270    1.000
    N873     N        0.00429    0.64610    0.20441    1.000
    N874     N        0.00788    0.62036    0.14015    1.000
    N875     N        0.13100    0.65542    0.18289    1.000
    N876     N        0.22224    0.62311    0.18756    1.000
    Si877    Si       0.15635    0.63546    0.15442    1.000
    N878     N        0.07910    0.61712    0.34375    1.000
    Si879    Si       0.99806    0.62452    0.26913    1.000
    Si880    Si       0.21486    0.64971    0.27890    1.000
    N881     N        0.13177    0.63765    0.27075    1.000
    N882     N        0.19110    0.62453    0.30267    1.000
    Si883    Si       0.15036    0.63402    0.31043    1.000
    N884     N        0.00146    0.62142    0.42394    1.000
    N885     N        0.07111    0.64132    0.41525    1.000
    Si886    Si       0.07419    0.64051    0.48537    1.000
    Si887    Si       0.07268    0.60888    0.38549    1.000
    N888     N        0.08422    0.59974    0.46488    1.000
    Si889    Si       0.11020    0.62412    0.43714    1.000
    Si890    Si       0.03085    0.65353    0.42954    1.000
    N891     N        0.20352    0.65116    0.41385    1.000
    Si892    Si       0.23034    0.61695    0.42035    1.000
    N893     N        0.15161    0.62780    0.44959    1.000
    N894     N        0.08303    0.64232    0.52735    1.000
    Si895    Si       0.03855    0.63461    0.61229    1.000
    Si896    Si       0.06597    0.60777    0.54777    1.000
    N897     N        0.99603    0.63091    0.52873    1.000
    N898     N        0.03926    0.60123    0.58142    1.000
    N899     N        0.07791    0.65103    0.61291    1.000
    N900     N        0.14595    0.63107    0.56486    1.000
    N901     N        0.21511    0.63143    0.55252    1.000
    Si902    Si       0.17613    0.62952    0.53197    1.000
    Si903    Si       0.23762    0.59680    0.56444    1.000
    N904     N        0.16942    0.59215    0.50864    1.000
    Si905    Si       0.99434    0.61003    0.67225    1.000
    N906     N        0.10237    0.61797    0.67903    1.000
    N907     N        0.03287    0.61333    0.65006    1.000
    Si908    Si       0.11029    0.63614    0.64041    1.000
    Si909    Si       0.06407    0.59725    0.67757    1.000
    N910     N        0.11060    0.65744    0.73341    1.000
    N911     N        0.12703    0.60112    0.62256    1.000
    Si912    Si       0.19821    0.64778    0.73455    1.000
    Si913    Si       0.23345    0.61024    0.64347    1.000
    N914     N        0.20068    0.63978    0.64019    1.000
    N915     N        0.16832    0.62466    0.71044    1.000
    Si916    Si       0.12711    0.62267    0.71541    1.000
    N917     N        0.07280    0.62311    0.77905    1.000
    Si918    Si       0.03270    0.62218    0.79805    1.000
    N919     N        0.00671    0.60873    0.76647    1.000
    N920     N        0.07831    0.64810    0.84417    1.000
    Si921    Si       0.07567    0.60493    0.84454    1.000
    N922     N        0.16753    0.61602    0.84000    1.000
    N923     N        0.19744    0.64332    0.77957    1.000
    Si924    Si       0.20223    0.61887    0.86467    1.000
    Si925    Si       0.16985    0.65024    0.81107    1.000
    N926     N        0.23519    0.61792    0.83685    1.000
    Si927    Si       0.23809    0.64222    0.79623    1.000
    N928     N        0.01720    0.64184    0.88038    1.000
    Si929    Si       0.03284    0.60867    0.90448    1.000
    N930     N        0.04480    0.62010    0.94540    1.000
    N931     N        0.09790    0.64906    0.98566    1.000
    Si932    Si       0.99957    0.65028    0.96990    1.000
    N933     N        0.07072    0.59596    0.88806    1.000
    Si934    Si       0.22520    0.65237    0.92959    1.000
    N935     N        0.19522    0.64803    0.89804    1.000
    Si936    Si       0.13921    0.64457    0.97445    1.000
    N937     N        0.14760    0.61012    0.95027    1.000
    N938     N        0.23340    0.61093    0.94651    1.000
    N939     N        0.08555    0.68046    0.10425    1.000
    N940     N        0.06997    0.69380    0.03218    1.000
    N941     N        0.01576    0.66503    0.09087    1.000
    Si942    Si       0.03490    0.70426    0.00942    1.000
    Si943    Si       0.00314    0.70533    0.08031    1.000
    Si944    Si       0.04581    0.68595    0.12001    1.000
    N945     N        0.00167    0.70748    0.03755    1.000
    Si946    Si       0.10084    0.66342    0.02719    1.000
    Si947    Si       0.11488    0.70683    0.08434    1.000
    N948     N        0.22427    0.70049    0.02692    1.000
    N949     N        0.13090    0.67827    0.05538    1.000
    Si950    Si       0.18309    0.69353    0.11023    1.000
    Si951    Si       0.22818    0.68435    0.06770    1.000
    N952     N        0.19004    0.66638    0.07598    1.000
    Si953    Si       0.99317    0.67980    0.22951    1.000
    N954     N        0.04619    0.67740    0.16218    1.000
    Si955    Si       0.05882    0.69280    0.20064    1.000
    N956     N        0.02394    0.71023    0.21683    1.000
    N957     N        0.08122    0.66176    0.22434    1.000
    Si958    Si       0.13003    0.69769    0.19881    1.000
    N959     N        0.18782    0.66453    0.14088    1.000
    N960     N        0.22037    0.69546    0.19159    1.000
    N961     N        0.13163    0.70176    0.24143    1.000
    Si962    Si       0.22564    0.66094    0.16405    1.000
    Si963    Si       0.23429    0.68460    0.23119    1.000
    Si964    Si       0.03713    0.68457    0.29420    1.000
    N965     N        0.02530    0.68129    0.33754    1.000
    N966     N        0.07908    0.67174    0.29480    1.000
    Si967    Si       0.10558    0.66987    0.26041    1.000
    N968     N        0.00678    0.66695    0.26784    1.000
    Si969    Si       0.04602    0.70436    0.37033    1.000
    N970     N        0.08554    0.68894    0.36724    1.000
    Si971    Si       0.08835    0.65886    0.33454    1.000
    N972     N        0.22537    0.68250    0.30608    1.000
    N973     N        0.18311    0.69530    0.35868    1.000
    Si974    Si       0.13936    0.69279    0.36685    1.000
    N975     N        0.13331    0.66127    0.33696    1.000
    N976     N        0.19483    0.67699    0.24914    1.000
    Si977    Si       0.19730    0.71164    0.32203    1.000
    Si978    Si       0.17025    0.71229    0.25359    1.000
    Si979    Si       0.01916    0.69301    0.48790    1.000
    Si980    Si       0.09563    0.68546    0.41983    1.000
    N981     N        0.02828    0.69084    0.40818    1.000
    N982     N        0.10223    0.66478    0.46267    1.000
    N983     N        0.03526    0.65522    0.47372    1.000
    Si984    Si       0.20788    0.70805    0.48672    1.000
    Si985    Si       0.16838    0.66286    0.43320    1.000
    Si986    Si       0.21473    0.68224    0.38419    1.000
    Si987    Si       0.13509    0.68672    0.48234    1.000
    N988     N        0.13795    0.67585    0.40645    1.000
    N989     N        0.17334    0.69365    0.46431    1.000
    N990     N        0.01801    0.70131    0.53192    1.000
    Si991    Si       0.09850    0.68968    0.60783    1.000
    Si992    Si       0.00151    0.66760    0.55576    1.000
    N993     N        0.01137    0.66392    0.59672    1.000
    Si994    Si       0.99558    0.69932    0.61714    1.000
    N995     N        0.11277    0.69526    0.56795    1.000
    Si996    Si       0.11681    0.65949    0.54527    1.000
    N997     N        0.20964    0.69329    0.52714    1.000
    N998     N        0.14724    0.66026    0.51362    1.000
    Si999    Si       0.24108    0.66569    0.54033    1.000
    N1000    N        0.01951    0.70091    0.65222    1.000
    N1001    N        0.05819    0.69034    0.69784    1.000
    Si1002   Si       0.09271    0.69658    0.72500    1.000
    Si1003   Si       0.01266    0.68381    0.69077    1.000
    N1004    N        0.12857    0.67610    0.63826    1.000
    Si1005   Si       0.14283    0.70909    0.66249    1.000
    N1006    N        0.18849    0.71231    0.66408    1.000
    N1007    N        0.19626    0.68961    0.72712    1.000
    Si1008   Si       0.20434    0.68416    0.63426    1.000
    Si1009   Si       0.00098    0.69266    0.79612    1.000
    Si1010   Si       0.04163    0.66683    0.85411    1.000
    N1011    N        0.08401    0.70145    0.76874    1.000
    N1012    N        0.02090    0.66095    0.81481    1.000
    Si1013   Si       0.11216    0.67626    0.84140    1.000
    Si1014   Si       0.09901    0.65872    0.77451    1.000
    N1015    N        0.03364    0.70544    0.87035    1.000
    N1016    N        0.18736    0.68000    0.83958    1.000
    Si1017   Si       0.21299    0.70833    0.81885    1.000
    N1018    N        0.13039    0.66390    0.80340    1.000
    N1019    N        0.07416    0.68152    0.92490    1.000
    N1020    N        0.03521    0.67454    0.97748    1.000
    Si1021   Si       0.03681    0.70010    0.91311    1.000
    N1022    N        0.99346    0.69145    0.91909    1.000
    Si1023   Si       0.06721    0.65512    0.95780    1.000
    N1024    N        0.14669    0.68044    0.94718    1.000
    Si1025   Si       0.11586    0.69226    0.91698    1.000
    N1026    N        0.13155    0.67620    0.87954    1.000
    Si1027   Si       0.17381    0.68155    0.88015    1.000
    Si1028   Si       0.18170    0.70554    0.94933    1.000
    N1029    N        0.21312    0.67951    0.96058    1.000
    N1030    N        0.09675    0.74307    0.07062    1.000
    Si1031   Si       0.08361    0.74925    0.02652    1.000
    N1032    N        0.03148    0.72333    0.10721    1.000
    Si1033   Si       0.22375    0.74329    0.01704    1.000
    N1034    N        0.12228    0.74572    0.00855    1.000
    N1035    N        0.19054    0.76875    0.02309    1.000
    N1036    N        0.14752    0.71721    0.11166    1.000
    N1037    N        0.22061    0.71523    0.09788    1.000
    Si1038   Si       0.02760    0.76307    0.12443    1.000
    N1039    N        0.03971    0.76893    0.16562    1.000
    Si1040   Si       0.08214    0.76092    0.17593    1.000
    N1041    N        0.10005    0.76082    0.13622    1.000
    N1042    N        0.09160    0.72030    0.18969    1.000
    N1043    N        0.21966    0.76253    0.16353    1.000
    Si1044   Si       0.19659    0.73110    0.18966    1.000
    Si1045   Si       0.14303    0.74809    0.14099    1.000
    N1046    N        0.19320    0.74224    0.23100    1.000
    N1047    N        0.15601    0.72366    0.17593    1.000
    N1048    N        0.09847    0.75012    0.31295    1.000
    N1049    N        0.05282    0.74890    0.36165    1.000
    Si1050   Si       0.05425    0.75214    0.31378    1.000
    N1051    N        0.03958    0.72538    0.28339    1.000
    Si1052   Si       0.09736    0.75737    0.35612    1.000
    Si1053   Si       0.01872    0.73953    0.24938    1.000
    Si1054   Si       0.13784    0.76180    0.29587    1.000
    N1055    N        0.22366    0.74532    0.32495    1.000
    N1056    N        0.16898    0.73001    0.29342    1.000
    Si1057   Si       0.08738    0.73627    0.47526    1.000
    N1058    N        0.01633    0.76027    0.42697    1.000
    N1059    N        0.10336    0.72786    0.43615    1.000
    N1060    N        0.04904    0.72088    0.47722    1.000
    Si1061   Si       0.00073    0.72024    0.42436    1.000
    N1062    N        0.23591    0.76849    0.43539    1.000
    N1063    N        0.20811    0.75103    0.49206    1.000
    N1064    N        0.17442    0.76196    0.41970    1.000
    Si1065   Si       0.13119    0.75555    0.41539    1.000
    Si1066   Si       0.21241    0.76043    0.39828    1.000
    N1067    N        0.22752    0.72019    0.39948    1.000
    N1068    N        0.12833    0.73726    0.37561    1.000
    Si1069   Si       0.01380    0.74114    0.55008    1.000
    N1070    N        0.00613    0.73451    0.59223    1.000
    N1071    N        0.11061    0.76225    0.57275    1.000
    N1072    N        0.11459    0.71921    0.50282    1.000
    Si1073   Si       0.10694    0.75872    0.61593    1.000
    Si1074   Si       0.12246    0.73045    0.54654    1.000
    N1075    N        0.16564    0.74333    0.54167    1.000
    Si1076   Si       0.19899    0.72261    0.55778    1.000
    N1077    N        0.23579    0.74823    0.55948    1.000
    Si1078   Si       0.23495    0.76741    0.52197    1.000
    N1079    N        0.20047    0.71681    0.60056    1.000
    Si1080   Si       0.18753    0.74877    0.63142    1.000
    N1081    N        0.08173    0.72646    0.62963    1.000
    N1082    N        0.04820    0.75750    0.68372    1.000
    Si1083   Si       0.00687    0.75970    0.69678    1.000
    Si1084   Si       0.05753    0.72086    0.66329    1.000
    N1085    N        0.99718    0.72096    0.71168    1.000
    N1086    N        0.17533    0.75967    0.72164    1.000
    N1087    N        0.14487    0.74553    0.63604    1.000
    Si1088   Si       0.13101    0.75986    0.71394    1.000
    N1089    N        0.12314    0.71771    0.70023    1.000
    Si1090   Si       0.20158    0.72644    0.70374    1.000
    Si1091   Si       0.06865    0.72605    0.80449    1.000
    N1092    N        0.02514    0.72795    0.79469    1.000
    Si1093   Si       0.02073    0.76941    0.80852    1.000
    N1094    N        0.07350    0.77018    0.80375    1.000
    N1095    N        0.09683    0.71518    0.83632    1.000
    Si1096   Si       0.11579    0.74253    0.86357    1.000
    N1097    N        0.12358    0.76369    0.75614    1.000
    N1098    N        0.22676    0.74051    0.84732    1.000
    Si1099   Si       0.16718    0.75836    0.76616    1.000
    N1100    N        0.15782    0.75478    0.86094    1.000
    N1101    N        0.18622    0.73550    0.79750    1.000
    Si1102   Si       0.18986    0.76952    0.82918    1.000
    Si1103   Si       0.01796    0.74749    0.88151    1.000
    N1104    N        0.04065    0.74433    0.91816    1.000
    Si1105   Si       0.04307    0.76469    0.95809    1.000
    N1106    N        0.05038    0.74348    0.99621    1.000
    Si1107   Si       0.16392    0.75673    0.91016    1.000
    N1108    N        0.16861    0.74668    0.95820    1.000
    N1109    N        0.23215    0.75635    0.97540    1.000
    Si1110   Si       0.22327    0.74033    0.89159    1.000
    N1111    N        0.12106    0.73420    0.90794    1.000
    Si1112   Si       0.15633    0.76716    0.99408    1.000
    N1113    N        0.18813    0.71537    0.90509    1.000
    N1114    N        0.08195    0.79482    0.02825    1.000
    N1115    N        0.04725    0.78772    0.09623    1.000
    Si1116   Si       0.09224    0.82904    0.05683    1.000
    Si1117   Si       0.08982    0.77610    0.09792    1.000
    Si1118   Si       0.03396    0.82983    0.10059    1.000
    N1119    N        0.11443    0.81324    0.09048    1.000
    Si1120   Si       0.20982    0.79766    0.05431    1.000
    N1121    N        0.21227    0.78654    0.09658    1.000
    N1122    N        0.18075    0.82876    0.04856    1.000
    N1123    N        0.09384    0.79041    0.20614    1.000
    N1124    N        0.00388    0.82543    0.18779    1.000
    Si1125   Si       0.01006    0.78380    0.19310    1.000
    N1126    N        0.02737    0.77742    0.23224    1.000
    Si1127   Si       0.11325    0.80764    0.23908    1.000
    N1128    N        0.19942    0.81412    0.22033    1.000
    N1129    N        0.22397    0.82989    0.16038    1.000
    Si1130   Si       0.13746    0.82366    0.12582    1.000
    N1131    N        0.16006    0.78791    0.13967    1.000
    Si1132   Si       0.20325    0.79466    0.13897    1.000
    Si1133   Si       0.24191    0.81605    0.20250    1.000
    Si1134   Si       0.18486    0.78200    0.24819    1.000
    N1135    N        0.03106    0.78614    0.30234    1.000
    N1136    N        0.08175    0.81831    0.26911    1.000
    Si1137   Si       0.04206    0.80486    0.26263    1.000
    N1138    N        0.09980    0.80043    0.35902    1.000
    N1139    N        0.99486    0.78706    0.36720    1.000
    Si1140   Si       0.99297    0.79119    0.32477    1.000
    N1141    N        0.21102    0.79477    0.28425    1.000
    N1142    N        0.15503    0.79101    0.32260    1.000
    Si1143   Si       0.13168    0.82284    0.33972    1.000
    N1144    N        0.20667    0.79022    0.36681    1.000
    N1145    N        0.14185    0.78212    0.25651    1.000
    Si1146   Si       0.19945    0.78062    0.32451    1.000
    Si1147   Si       0.19963    0.83212    0.36962    1.000
    Si1148   Si       0.99875    0.78967    0.45285    1.000
    Si1149   Si       0.09072    0.81891    0.39733    1.000
    N1150    N        0.04913    0.81537    0.39908    1.000
    N1151    N        0.02016    0.80148    0.48789    1.000
    N1152    N        0.08845    0.77895    0.48907    1.000
    N1153    N        0.99018    0.82706    0.43337    1.000
    N1154    N        0.11233    0.79613    0.42626    1.000
    Si1155   Si       0.03014    0.77631    0.38828    1.000
    N1156    N        0.21317    0.81925    0.46365    1.000
    Si1157   Si       0.11819    0.80547    0.47025    1.000
    N1158    N        0.15570    0.78693    0.47980    1.000
    Si1159   Si       0.19439    0.77559    0.45724    1.000
    Si1160   Si       0.05393    0.79416    0.51219    1.000
    N1161    N        0.00622    0.80625    0.60443    1.000
    Si1162   Si       0.03480    0.81866    0.57078    1.000
    N1163    N        0.03780    0.77744    0.54923    1.000
    N1164    N        0.06442    0.83437    0.52639    1.000
    Si1165   Si       0.13781    0.80209    0.58607    1.000
    N1166    N        0.18015    0.79498    0.59685    1.000
    N1167    N        0.21114    0.80425    0.52979    1.000
    Si1168   Si       0.20954    0.81814    0.57287    1.000
    N1169    N        0.14599    0.80985    0.54199    1.000
    Si1170   Si       0.17311    0.78121    0.52009    1.000
    N1171    N        0.99596    0.78880    0.72589    1.000
    Si1172   Si       0.06669    0.79205    0.70059    1.000
    N1173    N        0.06429    0.79852    0.74262    1.000
    N1174    N        0.10961    0.79248    0.69100    1.000
    N1175    N        0.04742    0.82744    0.68309    1.000
    N1176    N        0.16739    0.81519    0.67469    1.000
    N1177    N        0.11546    0.80045    0.62294    1.000
    Si1178   Si       0.18315    0.80771    0.71391    1.000
    Si1179   Si       0.12453    0.82007    0.66171    1.000
    N1180    N        0.21728    0.77591    0.64779    1.000
    N1181    N        0.22760    0.80882    0.71262    1.000
    Si1182   Si       0.19098    0.81327    0.63659    1.000
    N1183    N        0.01736    0.80829    0.79163    1.000
    Si1184   Si       0.06747    0.79380    0.84311    1.000
    Si1185   Si       0.09597    0.79077    0.77323    1.000
    N1186    N        0.99602    0.83126    0.85921    1.000
    Si1187   Si       0.02391    0.81314    0.74773    1.000
    N1188    N        0.11458    0.82897    0.78713    1.000
    N1189    N        0.02907    0.77469    0.85142    1.000
    N1190    N        0.17454    0.79487    0.79277    1.000
    N1191    N        0.20403    0.80573    0.85118    1.000
    N1192    N        0.09328    0.78070    0.87350    1.000
    N1193    N        0.01825    0.80113    0.96128    1.000
    Si1194   Si       0.09516    0.81102    0.98923    1.000
    N1195    N        0.08343    0.78631    0.95292    1.000
    Si1196   Si       0.10146    0.77395    0.91501    1.000
    N1197    N        0.20576    0.77692    0.91072    1.000
    Si1198   Si       0.15094    0.82594    0.94661    1.000
    N1199    N        0.14013    0.79509    0.91744    1.000
    Si1200   Si       0.20593    0.81912    0.89480    1.000
    N1201    N        0.19241    0.82989    0.93899    1.000
    N1202    N        0.14128    0.80916    0.98627    1.000
    Si1203   Si       0.21722    0.79226    0.95257    1.000
    N1204    N        0.06177    0.85275    0.07665    1.000
    N1205    N        0.99162    0.83685    0.08771    1.000
    N1206    N        0.00291    0.85337    0.00231    1.000
    Si1207   Si       0.09066    0.88241    0.00234    1.000
    N1208    N        0.11433    0.85249    0.02788    1.000
    Si1209   Si       0.15442    0.83952    0.01699    1.000
    Si1210   Si       0.18648    0.86029    0.07756    1.000
    N1211    N        0.22747    0.87397    0.07949    1.000
    N1212    N        0.17457    0.84708    0.11687    1.000
    Si1213   Si       0.02511    0.85559    0.20953    1.000
    Si1214   Si       0.10222    0.87758    0.22043    1.000
    N1215    N        0.06517    0.86810    0.19778    1.000
    Si1216   Si       0.07727    0.86747    0.15463    1.000
    N1217    N        0.04742    0.84234    0.13730    1.000
    N1218    N        0.99467    0.88839    0.21107    1.000
    N1219    N        0.11657    0.85119    0.15136    1.000
    Si1220   Si       0.19825    0.86329    0.14941    1.000
    Si1221   Si       0.14026    0.88608    0.16595    1.000
    N1222    N        0.17509    0.86976    0.18504    1.000
    N1223    N        0.13244    0.84607    0.22769    1.000
    Si1224   Si       0.17605    0.85001    0.22434    1.000
    N1225    N        0.04146    0.86324    0.31264    1.000
    Si1226   Si       0.07926    0.85472    0.29015    1.000
    Si1227   Si       0.00607    0.85389    0.28957    1.000
    N1228    N        0.02489    0.84391    0.25078    1.000
    N1229    N        0.08980    0.88583    0.26037    1.000
    N1230    N        0.11254    0.85701    0.31841    1.000
    N1231    N        0.21476    0.85146    0.33211    1.000
    N1232    N        0.18889    0.86422    0.26453    1.000
    Si1233   Si       0.21657    0.84042    0.29038    1.000
    N1234    N        0.15834    0.84169    0.36782    1.000
    Si1235   Si       0.23604    0.89097    0.33644    1.000
    N1236    N        0.00933    0.86754    0.37313    1.000
    N1237    N        0.99761    0.86945    0.48384    1.000
    N1238    N        0.10009    0.85992    0.39798    1.000
    N1239    N        0.04221    0.87856    0.42938    1.000
    Si1240   Si       0.01943    0.84560    0.40650    1.000
    Si1241   Si       0.20409    0.85241    0.43607    1.000
    N1242    N        0.11371    0.84700    0.47702    1.000
    N1243    N        0.22623    0.84570    0.40147    1.000
    Si1244   Si       0.14167    0.87137    0.39508    1.000
    N1245    N        0.16390    0.86547    0.43147    1.000
    Si1246   Si       0.14798    0.87474    0.47038    1.000
    Si1247   Si       0.10020    0.85938    0.60472    1.000
    N1248    N        0.00598    0.84812    0.55183    1.000
    Si1249   Si       0.09018    0.86346    0.51016    1.000
    N1250    N        0.06601    0.83557    0.59805    1.000
    Si1251   Si       0.99661    0.83451    0.50790    1.000
    N1252    N        0.12278    0.87933    0.53585    1.000
    N1253    N        0.19648    0.85809    0.56196    1.000
    Si1254   Si       0.15814    0.85084    0.53938    1.000
    Si1255   Si       0.17626    0.87407    0.59658    1.000
    N1256    N        0.13976    0.84878    0.58917    1.000
    Si1257   Si       0.21364    0.84021    0.50388    1.000
    N1258    N        0.17515    0.85953    0.50005    1.000
    N1259    N        0.02217    0.86683    0.63959    1.000
    Si1260   Si       0.03948    0.86697    0.70238    1.000
    N1261    N        0.08151    0.87945    0.71311    1.000
    N1262    N        0.01839    0.85713    0.73863    1.000
    N1263    N        0.09873    0.85432    0.65049    1.000
    Si1264   Si       0.10798    0.88723    0.67991    1.000
    Si1265   Si       0.05659    0.83961    0.64327    1.000
    Si1266   Si       0.16212    0.88183    0.73497    1.000
    N1267    N        0.19727    0.85557    0.62826    1.000
    N1268    N        0.16707    0.83808    0.73983    1.000
    Si1269   Si       0.23236    0.88280    0.63696    1.000
    N1270    N        0.14963    0.88800    0.69295    1.000
    N1271    N        0.00772    0.87462    0.80720    1.000
    Si1272   Si       0.08978    0.85908    0.80736    1.000
    N1273    N        0.06939    0.88561    0.77985    1.000
    Si1274   Si       0.02706    0.88744    0.77083    1.000
    Si1275   Si       0.02022    0.83842    0.82303    1.000
    N1276    N        0.06252    0.83521    0.83219    1.000
    N1277    N        0.11432    0.88566    0.83231    1.000
    Si1278   Si       0.19460    0.84476    0.83658    1.000
    N1279    N        0.17357    0.86302    0.80421    1.000
    N1280    N        0.23563    0.85722    0.82704    1.000
    Si1281   Si       0.15649    0.83289    0.78034    1.000
    N1282    N        0.08090    0.88334    0.89779    1.000
    N1283    N        0.07450    0.84831    0.97510    1.000
    N1284    N        0.00860    0.86252    0.93457    1.000
    Si1285   Si       0.08895    0.87252    0.93854    1.000
    Si1286   Si       0.02837    0.84131    0.96834    1.000
    Si1287   Si       0.99819    0.85934    0.89288    1.000
    N1288    N        0.17297    0.86986    0.98946    1.000
    N1289    N        0.13384    0.86583    0.93602    1.000
    Si1290   Si       0.21226    0.86164    0.96523    1.000
    N1291    N        0.18143    0.85686    0.87754    1.000
    Si1292   Si       0.16419    0.88136    0.90847    1.000
    N1293    N        0.04238    0.93044    0.08304    1.000
    N1294    N        0.10748    0.90699    0.07482    1.000
    Si1295   Si       0.06369    0.89469    0.06850    1.000
    N1296    N        0.05594    0.89454    0.02678    1.000
    Si1297   Si       0.10985    0.92373    0.11404    1.000
    Si1298   Si       0.01360    0.89387    0.01534    1.000
    N1299    N        0.12319    0.91328    0.00428    1.000
    Si1300   Si       0.20191    0.90442    0.02258    1.000
    Si1301   Si       0.13709    0.91862    0.04513    1.000
    Si1302   Si       0.22662    0.91697    0.08946    1.000
    N1303    N        0.22899    0.92941    0.04647    1.000
    N1304    N        0.17133    0.89435    0.05402    1.000
    Si1305   Si       0.04237    0.93281    0.12615    1.000
    N1306    N        0.07742    0.90712    0.13729    1.000
    N1307    N        0.00827    0.90893    0.14207    1.000
    Si1308   Si       0.11649    0.95171    0.20924    1.000
    N1309    N        0.14639    0.91705    0.13551    1.000
    N1310    N        0.21604    0.90112    0.14027    1.000
    Si1311   Si       0.18616    0.93594    0.14007    1.000
    N1312    N        0.11934    0.91060    0.19797    1.000
    N1313    N        0.09370    0.92416    0.31423    1.000
    Si1314   Si       0.08147    0.92647    0.27261    1.000
    N1315    N        0.03825    0.93134    0.27497    1.000
    Si1316   Si       0.99687    0.92948    0.28844    1.000
    N1317    N        0.99671    0.91471    0.32966    1.000
    N1318    N        0.05567    0.91632    0.36956    1.000
    Si1319   Si       0.06979    0.94691    0.34392    1.000
    Si1320   Si       0.03151    0.89042    0.34349    1.000
    N1321    N        0.16421    0.90964    0.31221    1.000
    Si1322   Si       0.17665    0.92424    0.35312    1.000
    Si1323   Si       0.19032    0.90441    0.27845    1.000
    N1324    N        0.22953    0.90924    0.29729    1.000
    Si1325   Si       0.12521    0.89822    0.32780    1.000
    N1326    N        0.21550    0.91042    0.37059    1.000
    Si1327   Si       0.23666    0.94462    0.27119    1.000
    N1328    N        0.13781    0.90872    0.37084    1.000
    N1329    N        0.19539    0.93563    0.24761    1.000
    N1330    N        0.01458    0.93336    0.46214    1.000
    N1331    N        0.09640    0.92511    0.42010    1.000
    Si1332   Si       0.03169    0.89466    0.46886    1.000
    Si1333   Si       0.07336    0.89497    0.40345    1.000
    N1334    N        0.06859    0.89462    0.49307    1.000
    N1335    N        0.98504    0.94305    0.39675    1.000
    Si1336   Si       0.12164    0.94633    0.39192    1.000
    Si1337   Si       0.11795    0.94469    0.45291    1.000
    N1338    N        0.22069    0.89332    0.44577    1.000
    N1339    N        0.14680    0.91883    0.47369    1.000
    Si1340   Si       0.17813    0.94492    0.48961    1.000
    Si1341   Si       0.23667    0.91094    0.40993    1.000
    Si1342   Si       0.24066    0.90444    0.48245    1.000
    Si1343   Si       0.07658    0.93500    0.51167    1.000
    N1344    N        0.09713    0.90240    0.60179    1.000
    N1345    N        0.10379    0.94516    0.54440    1.000
    N1346    N        0.03658    0.94536    0.52378    1.000
    Si1347   Si       0.00431    0.95180    0.55278    1.000
    Si1348   Si       0.12364    0.91197    0.56754    1.000
    N1349    N        0.21347    0.92666    0.50834    1.000
    N1350    N        0.15997    0.91516    0.59102    1.000
    Si1351   Si       0.19118    0.93885    0.61139    1.000
    N1352    N        0.22984    0.91652    0.60774    1.000
    N1353    N        0.03776    0.93639    0.62495    1.000
    Si1354   Si       0.08185    0.93293    0.62607    1.000
    N1355    N        0.09780    0.92650    0.66655    1.000
    Si1356   Si       0.00264    0.93360    0.71681    1.000
    N1357    N        0.02240    0.90544    0.69127    1.000
    Si1358   Si       0.01393    0.90851    0.64769    1.000
    N1359    N        0.08889    0.94383    0.73600    1.000
    Si1360   Si       0.18698    0.91225    0.68750    1.000
    N1361    N        0.19681    0.91002    0.72947    1.000
    N1362    N        0.17877    0.93812    0.65499    1.000
    N1363    N        0.22692    0.89889    0.67637    1.000
    N1364    N        0.00687    0.92429    0.75924    1.000
    N1365    N        0.07897    0.93662    0.86414    1.000
    Si1366   Si       0.09379    0.90291    0.74848    1.000
    Si1367   Si       0.10751    0.90429    0.86975    1.000
    N1368    N        0.01435    0.89342    0.87642    1.000
    Si1369   Si       0.21959    0.93407    0.75950    1.000
    N1370    N        0.16667    0.93385    0.82616    1.000
    Si1371   Si       0.14910    0.89825    0.80774    1.000
    N1372    N        0.23362    0.92019    0.79876    1.000
    N1373    N        0.13429    0.89716    0.76402    1.000
    Si1374   Si       0.18085    0.93542    0.86830    1.000
    N1375    N        0.22008    0.91914    0.87438    1.000
    Si1376   Si       0.10762    0.94396    0.97441    1.000
    Si1377   Si       0.04971    0.91481    0.88789    1.000
    N1378    N        0.07690    0.90855    0.96276    1.000
    N1379    N        0.00836    0.92288    0.98202    1.000
    N1380    N        0.03464    0.94154    0.91874    1.000
    Si1381   Si       0.04237    0.93589    0.95996    1.000
    Si1382   Si       0.16153    0.90688    0.97131    1.000
    N1383    N        0.13851    0.93480    0.94558    1.000
    N1384    N        0.14610    0.91769    0.88661    1.000
    Si1385   Si       0.23115    0.91496    0.91816    1.000
    N1386    N        0.19609    0.89526    0.93434    1.000
    N1387    N        0.23274    0.88801    0.99326    1.000
    N1388    N        0.18392    0.93579    0.99635    1.000
    N1389    N        0.07950    0.97721    0.04185    1.000
    Si1390   Si       0.04052    0.96657    0.05799    1.000
    N1391    N        0.00395    0.97000    0.03450    1.000
    N1392    N        0.10574    0.96793    0.10876    1.000
    Si1393   Si       0.08350    0.99896    0.00162    1.000
    Si1394   Si       0.00326    0.00349    0.00548    1.000
    N1395    N        0.03655    0.00496    0.08208    1.000
    Si1396   Si       0.11479    0.98040    0.06690    1.000
    Si1397   Si       0.16351    0.97169    0.01297    1.000
    N1398    N        0.14868    0.95991    0.05196    1.000
    N1399    N        0.20842    0.95477    0.10972    1.000
    Si1400   Si       0.02082    0.00033    0.11984    1.000
    N1401    N        0.04518    0.97174    0.14273    1.000
    Si1402   Si       0.08462    0.98738    0.14095    1.000
    N1403    N        0.10853    0.97722    0.17555    1.000
    Si1404   Si       0.23704    0.97997    0.13351    1.000
    Si1405   Si       0.18805    0.96602    0.21885    1.000
    Si1406   Si       0.15001    0.99496    0.17621    1.000
    N1407    N        0.22212    0.99256    0.21410    1.000
    N1408    N        0.17916    0.96244    0.17362    1.000
    N1409    N        0.14965    0.98771    0.22288    1.000
    N1410    N        0.03886    0.97712    0.33655    1.000
    N1411    N        0.10426    0.96799    0.36002    1.000
    Si1412   Si       0.00642    0.00579    0.33772    1.000
    N1413    N        0.10013    0.95751    0.25044    1.000
    Si1414   Si       0.12162    0.99470    0.25979    1.000
    Si1415   Si       0.20420    0.99378    0.36206    1.000
    N1416    N        0.17104    0.96669    0.35455    1.000
    Si1417   Si       0.13629    0.99218    0.33938    1.000
    N1418    N        0.21894    0.98190    0.28802    1.000
    N1419    N        0.14567    0.99804    0.29698    1.000
    N1420    N        0.08880    0.96068    0.47917    1.000
    Si1421   Si       0.08158    0.00218    0.48409    1.000
    Si1422   Si       0.01341    0.96833    0.48977    1.000
    N1423    N        0.03875    0.00472    0.49654    1.000
    Si1424   Si       0.16998    0.99797    0.43317    1.000
    N1425    N        0.19451    0.97109    0.45988    1.000
    N1426    N        0.13778    0.97125    0.42215    1.000
    Si1427   Si       0.23025    0.98671    0.43629    1.000
    N1428    N        0.20288    0.00161    0.40371    1.000
    N1429    N        0.01767    0.98923    0.57118    1.000
    Si1430   Si       0.03927    0.97645    0.60894    1.000
    N1431    N        0.08320    0.97545    0.61712    1.000
    Si1432   Si       0.12778    0.98163    0.54052    1.000
    N1433    N        0.19479    0.98220    0.60404    1.000
    N1434    N        0.16335    0.97482    0.51786    1.000
    N1435    N        0.22631    0.99777    0.50879    1.000
    N1436    N        0.13129    0.00752    0.57705    1.000
    Si1437   Si       0.09724    0.00546    0.64513    1.000
    Si1438   Si       0.04669    0.00130    0.70957    1.000
    N1439    N        0.08117    0.99348    0.68452    1.000
    N1440    N        0.01406    0.97407    0.71085    1.000
    Si1441   Si       0.10270    0.95797    0.69802    1.000
    N1442    N        0.01822    0.00839    0.63072    1.000
    Si1443   Si       0.16055    0.99017    0.74508    1.000
    N1444    N        0.20584    0.99693    0.68271    1.000
    N1445    N        0.14405    0.97053    0.70720    1.000
    Si1446   Si       0.16881    0.97795    0.67192    1.000
    N1447    N        0.14167    0.99981    0.64696    1.000
    Si1448   Si       0.08469    0.97568    0.76392    1.000
    Si1449   Si       0.07413    0.97362    0.84286    1.000
    N1450    N        0.03802    0.99005    0.85922    1.000
    N1451    N        0.07047    0.96581    0.80182    1.000
    N1452    N        0.10759    0.00048    0.84677    1.000
    N1453    N        0.12461    0.99155    0.77062    1.000
    N1454    N        0.21969    0.97505    0.83474    1.000
    Si1455   Si       0.18433    0.97015    0.80844    1.000
    N1456    N        0.19095    0.96700    0.76530    1.000
    N1457    N        0.07026    0.97044    0.96883    1.000
    Si1458   Si       0.08709    0.00174    0.94067    1.000
    Si1459   Si       0.02508    0.97972    0.90120    1.000
    N1460    N        0.05027    0.01085    0.91876    1.000
    N1461    N        0.11813    0.99468    0.91190    1.000
    Si1462   Si       0.14207    0.95688    0.91025    1.000
    Si1463   Si       0.21658    0.98883    0.91642    1.000
    N1464    N        0.18217    0.97124    0.89463    1.000
    N1465    N        0.12439    0.98048    0.99429    1.000
    Si1466   Si       0.25862    0.03209    0.10567    1.000
    Si1467   Si       0.32994    0.05596    0.01271    1.000
    N1468    N        0.25611    0.02825    0.06331    1.000
    N1469    N        0.35480    0.04862    0.04826    1.000
    N1470    N        0.30951    0.01884    0.00660    1.000
    N1471    N        0.34603    0.01351    0.11211    1.000
    N1472    N        0.24788    0.04858    0.00823    1.000
    Si1473   Si       0.27360    0.01129    0.02751    1.000
    N1474    N        0.29217    0.05701    0.11981    1.000
    Si1475   Si       0.36887    0.01396    0.07365    1.000
    N1476    N        0.40528    0.02574    0.09417    1.000
    N1477    N        0.46840    0.04715    0.07251    1.000
    Si1478   Si       0.43318    0.05804    0.09353    1.000
    N1479    N        0.32406    0.03883    0.17824    1.000
    N1480    N        0.25184    0.05435    0.20229    1.000
    Si1481   Si       0.33184    0.04759    0.13408    1.000
    Si1482   Si       0.29424    0.04319    0.20911    1.000
    Si1483   Si       0.35499    0.00940    0.18538    1.000
    N1484    N        0.30173    0.06601    0.24590    1.000
    N1485    N        0.36466    0.01240    0.22546    1.000
    N1486    N        0.38917    0.02376    0.16309    1.000
    N1487    N        0.47143    0.03290    0.19609    1.000
    Si1488   Si       0.39973    0.03752    0.23647    1.000
    Si1489   Si       0.46682    0.04124    0.15471    1.000
    N1490    N        0.26795    0.03222    0.30411    1.000
    Si1491   Si       0.30423    0.04907    0.28586    1.000
    N1492    N        0.32859    0.05938    0.36450    1.000
    N1493    N        0.32801    0.01371    0.28243    1.000
    N1494    N        0.44253    0.05151    0.32555    1.000
    N1495    N        0.38090    0.03070    0.32734    1.000
    Si1496   Si       0.42011    0.01815    0.34268    1.000
    Si1497   Si       0.48480    0.04706    0.32611    1.000
    Si1498   Si       0.32598    0.01792    0.37672    1.000
    N1499    N        0.31567    0.05363    0.44594    1.000
    Si1500   Si       0.35426    0.03530    0.44086    1.000
    Si1501   Si       0.27867    0.04249    0.42441    1.000
    N1502    N        0.25184    0.02194    0.45128    1.000
    Si1503   Si       0.25827    0.02474    0.49402    1.000
    N1504    N        0.28795    0.00991    0.39588    1.000
    N1505    N        0.35821    0.00911    0.40590    1.000
    N1506    N        0.36320    0.01092    0.47469    1.000
    N1507    N        0.45490    0.06357    0.41097    1.000
    Si1508   Si       0.44035    0.05894    0.49104    1.000
    Si1509   Si       0.44651    0.02076    0.42236    1.000
    N1510    N        0.43358    0.02597    0.46336    1.000
    N1511    N        0.38477    0.06538    0.42952    1.000
    N1512    N        0.35035    0.02893    0.53662    1.000
    Si1513   Si       0.34458    0.01342    0.57916    1.000
    N1514    N        0.35889    0.04650    0.60454    1.000
    N1515    N        0.24625    0.06327    0.50427    1.000
    N1516    N        0.30392    0.01407    0.58767    1.000
    Si1517   Si       0.28790    0.03309    0.62145    1.000
    N1518    N        0.24024    0.02543    0.56684    1.000
    N1519    N        0.29120    0.00773    0.51703    1.000
    N1520    N        0.41515    0.05236    0.52567    1.000
    Si1521   Si       0.43882    0.03626    0.55860    1.000
    N1522    N        0.41633    0.01677    0.59102    1.000
    Si1523   Si       0.37234    0.06607    0.52607    1.000
    N1524    N        0.46255    0.06722    0.57441    1.000
    N1525    N        0.48143    0.06683    0.50368    1.000
    N1526    N        0.31517    0.06448    0.72431    1.000
    N1527    N        0.24485    0.03813    0.70994    1.000
    N1528    N        0.31232    0.03399    0.65945    1.000
    Si1529   Si       0.34475    0.03879    0.74227    1.000
    Si1530   Si       0.27126    0.06262    0.73639    1.000
    N1531    N        0.25372    0.00684    0.63611    1.000
    N1532    N        0.38761    0.04425    0.73371    1.000
    Si1533   Si       0.39872    0.05352    0.69172    1.000
    Si1534   Si       0.39993    0.04141    0.62294    1.000
    Si1535   Si       0.47651    0.04262    0.70372    1.000
    N1536    N        0.39712    0.02218    0.66145    1.000
    N1537    N        0.27027    0.05717    0.77983    1.000
    N1538    N        0.33709    0.03657    0.78603    1.000
    Si1539   Si       0.29401    0.02330    0.79138    1.000
    Si1540   Si       0.24066    0.01237    0.84636    1.000
    N1541    N        0.39697    0.03037    0.80656    1.000
    N1542    N        0.44920    0.05021    0.76410    1.000
    Si1543   Si       0.41161    0.04853    0.84307    1.000
    Si1544   Si       0.40806    0.05210    0.77083    1.000
    N1545    N        0.47322    0.01232    0.85012    1.000
    Si1546   Si       0.47301    0.01394    0.76600    1.000
    Si1547   Si       0.48279    0.05141    0.83341    1.000
    N1548    N        0.27720    0.05461    0.92048    1.000
    N1549    N        0.35684    0.04721    0.97729    1.000
    Si1550   Si       0.28740    0.01244    0.91062    1.000
    N1551    N        0.41531    0.02626    0.88209    1.000
    Si1552   Si       0.45577    0.01145    0.88941    1.000
    Si1553   Si       0.39869    0.03762    0.98817    1.000
    N1554    N        0.48451    0.02127    0.98193    1.000
    Si1555   Si       0.46391    0.04672    0.95215    1.000
    Si1556   Si       0.39218    0.02892    0.91736    1.000
    N1557    N        0.47823    0.03980    0.91100    1.000
    N1558    N        0.42152    0.03470    0.95037    1.000
    N1559    N        0.30454    0.09116    0.01322    1.000
    Si1560   Si       0.27349    0.09601    0.11401    1.000
    N1561    N        0.30911    0.12035    0.10141    1.000
    N1562    N        0.36231    0.12483    0.04327    1.000
    N1563    N        0.23933    0.08141    0.09192    1.000
    Si1564   Si       0.26191    0.09310    0.99765    1.000
    N1565    N        0.47058    0.11253    0.09411    1.000
    N1566    N        0.41153    0.09018    0.07359    1.000
    Si1567   Si       0.38002    0.08593    0.04391    1.000
    N1568    N        0.40464    0.07252    0.00975    1.000
    Si1569   Si       0.43956    0.12173    0.06447    1.000
    N1570    N        0.45078    0.12255    0.02241    1.000
    N1571    N        0.25924    0.10823    0.15379    1.000
    N1572    N        0.34409    0.11951    0.23100    1.000
    Si1573   Si       0.30058    0.11047    0.24249    1.000
    N1574    N        0.27066    0.12225    0.21410    1.000
    Si1575   Si       0.24501    0.09514    0.19101    1.000
    Si1576   Si       0.34244    0.11941    0.13113    1.000
    N1577    N        0.36046    0.08203    0.13668    1.000
    Si1578   Si       0.38364    0.10239    0.23742    1.000
    Si1579   Si       0.45925    0.10783    0.13627    1.000
    N1580    N        0.43591    0.06899    0.13878    1.000
    N1581    N        0.39620    0.07438    0.20417    1.000
    Si1582   Si       0.39562    0.06715    0.16059    1.000
    N1583    N        0.32744    0.08028    0.30533    1.000
    N1584    N        0.29342    0.12039    0.34904    1.000
    Si1585   Si       0.31544    0.12159    0.31029    1.000
    Si1586   Si       0.35797    0.06913    0.33393    1.000
    N1587    N        0.44618    0.11049    0.28590    1.000
    N1588    N        0.38740    0.10040    0.32961    1.000
    Si1589   Si       0.41795    0.08255    0.30339    1.000
    N1590    N        0.39700    0.07088    0.26583    1.000
    Si1591   Si       0.30357    0.09288    0.38164    1.000
    N1592    N        0.32805    0.10941    0.41195    1.000
    N1593    N        0.26672    0.07832    0.40330    1.000
    Si1594   Si       0.32371    0.09703    0.45294    1.000
    N1595    N        0.28904    0.11968    0.46866    1.000
    N1596    N        0.34899    0.08857    0.49371    1.000
    N1597    N        0.43253    0.09513    0.46961    1.000
    Si1598   Si       0.42242    0.08609    0.42739    1.000
    N1599    N        0.41006    0.12175    0.40655    1.000
    N1600    N        0.31326    0.09419    0.59796    1.000
    Si1601   Si       0.35703    0.09176    0.59569    1.000
    N1602    N        0.28338    0.11041    0.53515    1.000
    Si1603   Si       0.29102    0.12314    0.57379    1.000
    Si1604   Si       0.26124    0.10510    0.49836    1.000
    N1605    N        0.36628    0.12755    0.61977    1.000
    N1606    N        0.37490    0.09906    0.55564    1.000
    Si1607   Si       0.45016    0.09555    0.60356    1.000
    N1608    N        0.25803    0.06656    0.62021    1.000
    Si1609   Si       0.32439    0.06882    0.68117    1.000
    Si1610   Si       0.28236    0.10051    0.63023    1.000
    N1611    N        0.30056    0.10110    0.66738    1.000
    N1612    N        0.25909    0.10270    0.72740    1.000
    N1613    N        0.41320    0.08089    0.62473    1.000
    N1614    N        0.44049    0.06668    0.69460    1.000
    N1615    N        0.36661    0.08035    0.67812    1.000
    Si1616   Si       0.45623    0.10440    0.67763    1.000
    Si1617   Si       0.38920    0.10907    0.65158    1.000
    N1618    N        0.47732    0.09583    0.63930    1.000
    N1619    N        0.26464    0.09815    0.84498    1.000
    N1620    N        0.32923    0.10846    0.80909    1.000
    Si1621   Si       0.30332    0.11706    0.84321    1.000
    Si1622   Si       0.24578    0.07600    0.80961    1.000
    Si1623   Si       0.35862    0.07839    0.80492    1.000
    N1624    N        0.39229    0.09084    0.77972    1.000
    Si1625   Si       0.45664    0.11351    0.81902    1.000
    N1626    N        0.44593    0.07300    0.83215    1.000
    N1627    N        0.37700    0.07600    0.84596    1.000
    N1628    N        0.31972    0.09784    0.87844    1.000
    N1629    N        0.32315    0.10150    0.94572    1.000
    Si1630   Si       0.29598    0.09186    0.91370    1.000
    N1631    N        0.26429    0.12383    0.90643    1.000
    Si1632   Si       0.36275    0.08391    0.95307    1.000
    N1633    N        0.23785    0.09040    0.96105    1.000
    N1634    N        0.46220    0.08898    0.96470    1.000
    Si1635   Si       0.42920    0.10308    0.98889    1.000
    N1636    N        0.39363    0.11364    0.96110    1.000
    Si1637   Si       0.36311    0.09704    0.88099    1.000
    N1638    N        0.37580    0.06976    0.91322    1.000
    N1639    N        0.29225    0.15748    0.04061    1.000
    Si1640   Si       0.29049    0.15760    0.08420    1.000
    Si1641   Si       0.26401    0.16961    0.00858    1.000
    N1642    N        0.24839    0.15044    0.09524    1.000
    Si1643   Si       0.32344    0.13132    0.02252    1.000
    Si1644   Si       0.38305    0.16207    0.05441    1.000
    N1645    N        0.41722    0.15583    0.07941    1.000
    N1646    N        0.40077    0.17781    0.01591    1.000
    Si1647   Si       0.48829    0.14777    0.02015    1.000
    Si1648   Si       0.40997    0.16198    0.12170    1.000
    N1649    N        0.36827    0.15340    0.12157    1.000
    N1650    N        0.24328    0.16897    0.17124    1.000
    N1651    N        0.30500    0.17885    0.20230    1.000
    Si1652   Si       0.33919    0.15292    0.19951    1.000
    Si1653   Si       0.28111    0.14594    0.17858    1.000
    N1654    N        0.32071    0.13122    0.16624    1.000
    Si1655   Si       0.40156    0.17876    0.22887    1.000
    N1656    N        0.43709    0.14350    0.15037    1.000
    N1657    N        0.47014    0.14027    0.21578    1.000
    Si1658   Si       0.45846    0.16596    0.18118    1.000
    N1659    N        0.37590    0.17667    0.19488    1.000
    N1660    N        0.40828    0.13679    0.23802    1.000
    N1661    N        0.34351    0.15238    0.31930    1.000
    Si1662   Si       0.26115    0.14889    0.34578    1.000
    Si1663   Si       0.24505    0.13982    0.27317    1.000
    Si1664   Si       0.33112    0.18505    0.35000    1.000
    N1665    N        0.28772    0.12874    0.27751    1.000
    N1666    N        0.41425    0.16931    0.32851    1.000
    Si1667   Si       0.38247    0.14259    0.33912    1.000
    Si1668   Si       0.44955    0.13790    0.25394    1.000
    N1669    N        0.45202    0.17934    0.27079    1.000
    Si1670   Si       0.44732    0.17958    0.35591    1.000
    N1671    N        0.24064    0.17662    0.44816    1.000
    Si1672   Si       0.27957    0.16307    0.46801    1.000
    Si1673   Si       0.35069    0.18145    0.46845    1.000
    N1674    N        0.23630    0.13594    0.37794    1.000
    N1675    N        0.36476    0.13917    0.45428    1.000
    Si1676   Si       0.36733    0.13222    0.41108    1.000
    N1677    N        0.36258    0.16004    0.37699    1.000
    N1678    N        0.31183    0.18641    0.45039    1.000
    N1679    N        0.47201    0.15287    0.38453    1.000
    N1680    N        0.44242    0.16625    0.45412    1.000
    Si1681   Si       0.44120    0.13577    0.48589    1.000
    Si1682   Si       0.43914    0.15438    0.41194    1.000
    Si1683   Si       0.36762    0.12752    0.49680    1.000
    N1684    N        0.31483    0.15955    0.57225    1.000
    Si1685   Si       0.35226    0.16165    0.59565    1.000
    N1686    N        0.34242    0.16205    0.50779    1.000
    N1687    N        0.27668    0.17838    0.51038    1.000
    Si1688   Si       0.31219    0.17724    0.53436    1.000
    N1689    N        0.25985    0.12892    0.60388    1.000
    N1690    N        0.38577    0.17151    0.56939    1.000
    N1691    N        0.47342    0.14237    0.51533    1.000
    Si1692   Si       0.47737    0.14081    0.55970    1.000
    N1693    N        0.40816    0.13814    0.51207    1.000
    Si1694   Si       0.40254    0.13253    0.55497    1.000
    N1695    N        0.44059    0.13077    0.57714    1.000
    N1696    N        0.24217    0.13812    0.67616    1.000
    Si1697   Si       0.34737    0.16744    0.71531    1.000
    N1698    N        0.30400    0.15563    0.71424    1.000
    Si1699   Si       0.27867    0.12613    0.69501    1.000
    Si1700   Si       0.48179    0.17448    0.69866    1.000
    Si1701   Si       0.41615    0.16691    0.69321    1.000
    N1702    N        0.42687    0.15367    0.73363    1.000
    N1703    N        0.42261    0.13057    0.67097    1.000
    N1704    N        0.37461    0.17518    0.68328    1.000
    N1705    N        0.48241    0.13062    0.70123    1.000
    N1706    N        0.29582    0.15939    0.85180    1.000
    Si1707   Si       0.34311    0.14747    0.78800    1.000
    N1708    N        0.30775    0.17089    0.78266    1.000
    N1709    N        0.36222    0.14398    0.74944    1.000
    N1710    N        0.37006    0.16541    0.81913    1.000
    N1711    N        0.43308    0.14141    0.79449    1.000
    N1712    N        0.47069    0.13835    0.85158    1.000
    Si1713   Si       0.37510    0.17490    0.86279    1.000
    Si1714   Si       0.45120    0.17646    0.76608    1.000
    Si1715   Si       0.41262    0.17413    0.81222    1.000
    Si1716   Si       0.40394    0.13002    0.76242    1.000
    N1717    N        0.33636    0.15400    0.98955    1.000
    Si1718   Si       0.30911    0.14204    0.95681    1.000
    N1719    N        0.31426    0.16922    0.92402    1.000
    Si1720   Si       0.28440    0.16259    0.89421    1.000
    N1721    N        0.26962    0.14062    0.97511    1.000
    Si1722   Si       0.24012    0.12910    0.94398    1.000
    Si1723   Si       0.39298    0.14671    0.93030    1.000
    Si1724   Si       0.45762    0.15970    0.88832    1.000
    N1725    N        0.48207    0.12741    0.90896    1.000
    N1726    N        0.37416    0.13828    0.89000    1.000
    N1727    N        0.43071    0.16583    0.92114    1.000
    Si1728   Si       0.36825    0.18422    0.98833    1.000
    N1729    N        0.37845    0.18601    0.94490    1.000
    N1730    N        0.35001    0.21982    0.00976    1.000
    Si1731   Si       0.28120    0.23010    0.10896    1.000
    N1732    N        0.30216    0.18959    0.10867    1.000
    Si1733   Si       0.34576    0.18844    0.11079    1.000
    N1734    N        0.28199    0.23762    0.06539    1.000
    N1735    N        0.36239    0.19630    0.07106    1.000
    Si1736   Si       0.37142    0.23295    0.04545    1.000
    N1737    N        0.41648    0.23686    0.03835    1.000
    N1738    N        0.48021    0.22672    0.10516    1.000
    Si1739   Si       0.43406    0.20568    0.01296    1.000
    N1740    N        0.47387    0.18919    0.01990    1.000
    N1741    N        0.24082    0.22056    0.12258    1.000
    Si1742   Si       0.30355    0.21687    0.21838    1.000
    N1743    N        0.35329    0.21790    0.14279    1.000
    N1744    N        0.26580    0.23760    0.22862    1.000
    N1745    N        0.43821    0.19581    0.20716    1.000
    Si1746   Si       0.43902    0.23998    0.19953    1.000
    N1747    N        0.41724    0.20437    0.13802    1.000
    Si1748   Si       0.38538    0.20979    0.16916    1.000
    Si1749   Si       0.46922    0.20378    0.23929    1.000
    Si1750   Si       0.44384    0.23708    0.12652    1.000
    N1751    N        0.34765    0.21985    0.32290    1.000
    Si1752   Si       0.35150    0.22092    0.27997    1.000
    N1753    N        0.31315    0.21291    0.26177    1.000
    Si1754   Si       0.27474    0.23292    0.27076    1.000
    Si1755   Si       0.27490    0.22608    0.36408    1.000
    N1756    N        0.28621    0.18819    0.34894    1.000
    Si1757   Si       0.42048    0.19681    0.29491    1.000
    N1758    N        0.47450    0.20873    0.34016    1.000
    N1759    N        0.38590    0.19702    0.26553    1.000
    N1760    N        0.42758    0.23885    0.30214    1.000
    Si1761   Si       0.30706    0.21890    0.42234    1.000
    N1762    N        0.33165    0.21132    0.38813    1.000
    N1763    N        0.26703    0.22001    0.40681    1.000
    N1764    N        0.35997    0.22283    0.49338    1.000
    N1765    N        0.38311    0.24327    0.37933    1.000
    N1766    N        0.42720    0.23474    0.47501    1.000
    N1767    N        0.37558    0.19938    0.43663    1.000
    N1768    N        0.42077    0.18818    0.39107    1.000
    Si1769   Si       0.38684    0.23220    0.46172    1.000
    Si1770   Si       0.37806    0.20079    0.39287    1.000
    Si1771   Si       0.45551    0.20683    0.46161    1.000
    N1772    N        0.48023    0.23536    0.43823    1.000
    N1773    N        0.31631    0.21746    0.54855    1.000
    N1774    N        0.26885    0.20330    0.60454    1.000
    Si1775   Si       0.30929    0.21395    0.59248    1.000
    N1776    N        0.34259    0.19776    0.61502    1.000
    Si1777   Si       0.34953    0.24118    0.53287    1.000
    N1778    N        0.44390    0.21309    0.56800    1.000
    Si1779   Si       0.40396    0.20792    0.58168    1.000
    Si1780   Si       0.48286    0.21604    0.58331    1.000
    N1781    N        0.38171    0.24053    0.56231    1.000
    Si1782   Si       0.24476    0.21415    0.63960    1.000
    N1783    N        0.26850    0.22346    0.67344    1.000
    N1784    N        0.33357    0.20729    0.73025    1.000
    N1785    N        0.27176    0.22184    0.74222    1.000
    Si1786   Si       0.34830    0.24464    0.71684    1.000
    Si1787   Si       0.29261    0.18351    0.74407    1.000
    N1788    N        0.35861    0.24017    0.67216    1.000
    N1789    N        0.47958    0.22691    0.62632    1.000
    Si1790   Si       0.44180    0.22507    0.64841    1.000
    N1791    N        0.48155    0.19248    0.73813    1.000
    Si1792   Si       0.36804    0.20314    0.64968    1.000
    N1793    N        0.40544    0.21010    0.62746    1.000
    N1794    N        0.44591    0.19458    0.68083    1.000
    N1795    N        0.30259    0.22893    0.82873    1.000
    N1796    N        0.24943    0.19329    0.81086    1.000
    Si1797   Si       0.29181    0.18823    0.81948    1.000
    Si1798   Si       0.33049    0.23873    0.86226    1.000
    N1799    N        0.41698    0.20340    0.77969    1.000
    Si1800   Si       0.47405    0.23283    0.80184    1.000
    N1801    N        0.41857    0.18445    0.85415    1.000
    N1802    N        0.47597    0.18916    0.80508    1.000
    Si1803   Si       0.43950    0.21820    0.86883    1.000
    N1804    N        0.45060    0.24501    0.83662    1.000
    N1805    N        0.25927    0.19648    0.89217    1.000
    Si1806   Si       0.34187    0.20278    0.92406    1.000
    N1807    N        0.35091    0.20574    0.88203    1.000
    Si1808   Si       0.26431    0.24125    0.89958    1.000
    N1809    N        0.33158    0.23682    0.94850    1.000
    Si1810   Si       0.31418    0.23246    0.98856    1.000
    N1811    N        0.27700    0.20790    0.99027    1.000
    N1812    N        0.43288    0.21766    0.97203    1.000
    N1813    N        0.47479    0.20101    0.88783    1.000
    N1814    N        0.41996    0.23471    0.90558    1.000
    Si1815   Si       0.41822    0.20447    0.93535    1.000
    Si1816   Si       0.26870    0.26532    0.03341    1.000
    N1817    N        0.30185    0.27138    0.00484    1.000
    N1818    N        0.36359    0.27175    0.06616    1.000
    N1819    N        0.41970    0.26589    0.10327    1.000
    Si1820   Si       0.38119    0.28557    0.10762    1.000
    Si1821   Si       0.42912    0.27112    0.06228    1.000
    N1822    N        0.47121    0.27615    0.05514    1.000
    Si1823   Si       0.48801    0.29430    0.01965    1.000
    Si1824   Si       0.33518    0.25372    0.15714    1.000
    N1825    N        0.29774    0.25988    0.13697    1.000
    Si1826   Si       0.27798    0.29411    0.15620    1.000
    N1827    N        0.24277    0.27150    0.17481    1.000
    N1828    N        0.33002    0.24669    0.20004    1.000
    N1829    N        0.36325    0.28558    0.14725    1.000
    Si1830   Si       0.36445    0.26462    0.21941    1.000
    N1831    N        0.46073    0.25199    0.16282    1.000
    N1832    N        0.39550    0.24282    0.19633    1.000
    N1833    N        0.46257    0.24643    0.23733    1.000
    N1834    N        0.27210    0.27338    0.28599    1.000
    N1835    N        0.30279    0.25877    0.35949    1.000
    Si1836   Si       0.34569    0.25107    0.35448    1.000
    N1837    N        0.35949    0.26027    0.26467    1.000
    N1838    N        0.36001    0.28610    0.33164    1.000
    Si1839   Si       0.37343    0.29373    0.28939    1.000
    Si1840   Si       0.44580    0.27558    0.28087    1.000
    N1841    N        0.45550    0.29104    0.32150    1.000
    Si1842   Si       0.45495    0.24863    0.33726    1.000
    N1843    N        0.41099    0.30103    0.26968    1.000
    N1844    N        0.31470    0.25997    0.43718    1.000
    Si1845   Si       0.27658    0.27947    0.44852    1.000
    Si1846   Si       0.34968    0.28578    0.43279    1.000
    Si1847   Si       0.29856    0.29626    0.38181    1.000
    N1848    N        0.24352    0.25255    0.46229    1.000
    N1849    N        0.26526    0.30047    0.41046    1.000
    N1850    N        0.33994    0.30333    0.39392    1.000
    N1851    N        0.44733    0.29771    0.42964    1.000
    Si1852   Si       0.42909    0.27939    0.46433    1.000
    N1853    N        0.39204    0.26946    0.43823    1.000
    Si1854   Si       0.41239    0.27107    0.39623    1.000
    N1855    N        0.44993    0.25660    0.37982    1.000
    Si1856   Si       0.47596    0.26829    0.41089    1.000
    N1857    N        0.32428    0.27591    0.52381    1.000
    N1858    N        0.30761    0.26025    0.59625    1.000
    Si1859   Si       0.29327    0.26682    0.55502    1.000
    N1860    N        0.25640    0.25760    0.53309    1.000
    Si1861   Si       0.33185    0.29408    0.61412    1.000
    Si1862   Si       0.39551    0.27998    0.57591    1.000
    N1863    N        0.43739    0.28814    0.58000    1.000
    N1864    N        0.37269    0.28142    0.61583    1.000
    N1865    N        0.31383    0.27100    0.71119    1.000
    N1866    N        0.24506    0.27841    0.70238    1.000
    Si1867   Si       0.27699    0.24741    0.70660    1.000
    N1868    N        0.42728    0.26489    0.66020    1.000
    Si1869   Si       0.38477    0.27253    0.65770    1.000
    Si1870   Si       0.44842    0.29890    0.67322    1.000
    N1871    N        0.38471    0.25716    0.73792    1.000
    Si1872   Si       0.39431    0.29932    0.72698    1.000
    N1873    N        0.43645    0.29703    0.71542    1.000
    Si1874   Si       0.46733    0.28275    0.74200    1.000
    N1875    N        0.32294    0.28715    0.78551    1.000
    Si1876   Si       0.29276    0.26674    0.81120    1.000
    N1877    N        0.34953    0.27568    0.84741    1.000
    N1878    N        0.25021    0.25753    0.79986    1.000
    Si1879   Si       0.35889    0.29240    0.80821    1.000
    Si1880   Si       0.24877    0.29891    0.86188    1.000
    N1881    N        0.24328    0.25676    0.86563    1.000
    N1882    N        0.39619    0.27045    0.80235    1.000
    Si1883   Si       0.43093    0.28296    0.82943    1.000
    N1884    N        0.45161    0.25753    0.77195    1.000
    N1885    N        0.41506    0.29297    0.86797    1.000
    Si1886   Si       0.41170    0.24498    0.77042    1.000
    N1887    N        0.30485    0.25351    0.89494    1.000
    Si1888   Si       0.32887    0.27399    0.92507    1.000
    N1889    N        0.24902    0.25587    0.93814    1.000
    N1890    N        0.49312    0.26101    0.99140    1.000
    Si1891   Si       0.48692    0.29864    0.91324    1.000
    N1892    N        0.37006    0.28690    0.91439    1.000
    Si1893   Si       0.41406    0.27788    0.90898    1.000
    N1894    N        0.29129    0.34004    0.01491    1.000
    N1895    N        0.34683    0.34538    0.05827    1.000
    N1896    N        0.35762    0.31443    0.00068    1.000
    Si1897   Si       0.36851    0.30802    0.04345    1.000
    Si1898   Si       0.43891    0.33927    0.03734    1.000
    N1899    N        0.39117    0.32751    0.10426    1.000
    N1900    N        0.47288    0.33383    0.00933    1.000
    N1901    N        0.41210    0.30627    0.04059    1.000
    N1902    N        0.45781    0.35252    0.07547    1.000
    Si1903   Si       0.42560    0.35499    0.10427    1.000
    N1904    N        0.26415    0.31977    0.12503    1.000
    N1905    N        0.31279    0.31747    0.17757    1.000
    Si1906   Si       0.29894    0.35216    0.20083    1.000
    Si1907   Si       0.35880    0.31821    0.17557    1.000
    N1908    N        0.29389    0.33630    0.24193    1.000
    Si1909   Si       0.25372    0.35951    0.13767    1.000
    Si1910   Si       0.48761    0.35079    0.14654    1.000
    N1911    N        0.37289    0.30631    0.21385    1.000
    N1912    N        0.38003    0.35597    0.17214    1.000
    Si1913   Si       0.48588    0.33413    0.22092    1.000
    N1914    N        0.43957    0.33469    0.20951    1.000
    N1915    N        0.44455    0.35681    0.14386    1.000
    Si1916   Si       0.40557    0.32633    0.23512    1.000
    Si1917   Si       0.42380    0.36263    0.18040    1.000
    N1918    N        0.35428    0.33256    0.28132    1.000
    Si1919   Si       0.26333    0.31158    0.26492    1.000
    N1920    N        0.28531    0.33220    0.36075    1.000
    N1921    N        0.24939    0.33606    0.29828    1.000
    N1922    N        0.35189    0.35738    0.35815    1.000
    Si1923   Si       0.32029    0.35627    0.26953    1.000
    Si1924   Si       0.36845    0.31640    0.36177    1.000
    Si1925   Si       0.44473    0.33003    0.33624    1.000
    N1926    N        0.40635    0.34669    0.32654    1.000
    N1927    N        0.46930    0.35604    0.30933    1.000
    N1928    N        0.47739    0.30391    0.26190    1.000
    Si1929   Si       0.38662    0.35976    0.29124    1.000
    Si1930   Si       0.24732    0.33241    0.38325    1.000
    N1931    N        0.34945    0.31630    0.46340    1.000
    Si1932   Si       0.25361    0.34266    0.48423    1.000
    N1933    N        0.28414    0.31310    0.47721    1.000
    N1934    N        0.44241    0.30537    0.49613    1.000
    N1935    N        0.40591    0.31130    0.38155    1.000
    N1936    N        0.39546    0.35960    0.42772    1.000
    Si1937   Si       0.36900    0.35404    0.46081    1.000
    Si1938   Si       0.43075    0.33467    0.40930    1.000
    N1939    N        0.39996    0.35880    0.49153    1.000
    N1940    N        0.45884    0.34353    0.37513    1.000
    N1941    N        0.33019    0.32884    0.58696    1.000
    N1942    N        0.32936    0.34848    0.51958    1.000
    Si1943   Si       0.29038    0.34454    0.58081    1.000
    Si1944   Si       0.35719    0.34201    0.55487    1.000
    N1945    N        0.27240    0.30786    0.56876    1.000
    Si1946   Si       0.32395    0.31022    0.49819    1.000
    Si1947   Si       0.41581    0.32863    0.51963    1.000
    Si1948   Si       0.46532    0.32217    0.57119    1.000
    N1949    N        0.43791    0.34968    0.55202    1.000
    N1950    N        0.38345    0.30931    0.54528    1.000
    N1951    N        0.48425    0.33559    0.60984    1.000
    Si1952   Si       0.48651    0.30472    0.49847    1.000
    N1953    N        0.31295    0.30334    0.65168    1.000
    N1954    N        0.27883    0.35309    0.62218    1.000
    Si1955   Si       0.25124    0.31712    0.71973    1.000
    Si1956   Si       0.27359    0.32258    0.65124    1.000
    N1957    N        0.33330    0.33507    0.72932    1.000
    N1958    N        0.27897    0.33831    0.69236    1.000
    Si1959   Si       0.32745    0.30981    0.69266    1.000
    N1960    N        0.42955    0.33297    0.65413    1.000
    N1961    N        0.37388    0.30514    0.68783    1.000
    Si1962   Si       0.39139    0.34444    0.67124    1.000
    Si1963   Si       0.36865    0.36059    0.73851    1.000
    Si1964   Si       0.45794    0.36206    0.63520    1.000
    Si1965   Si       0.28790    0.34851    0.82707    1.000
    Si1966   Si       0.30741    0.32299    0.76304    1.000
    N1967    N        0.26438    0.31521    0.76251    1.000
    N1968    N        0.31115    0.35725    0.79236    1.000
    N1969    N        0.28326    0.30672    0.83328    1.000
    N1970    N        0.37140    0.33031    0.82815    1.000
    N1971    N        0.39097    0.32946    0.76027    1.000
    N1972    N        0.44311    0.32173    0.81400    1.000
    Si1973   Si       0.40552    0.34205    0.79942    1.000
    Si1974   Si       0.48380    0.33501    0.79848    1.000
    Si1975   Si       0.37079    0.30402    0.87037    1.000
    N1976    N        0.32120    0.31535    0.94484    1.000
    Si1977   Si       0.28490    0.33901    0.92459    1.000
    N1978    N        0.26010    0.32885    0.95858    1.000
    N1979    N        0.25804    0.31489    0.89952    1.000
    Si1980   Si       0.31511    0.31073    0.98938    1.000
    Si1981   Si       0.36146    0.32739    0.93150    1.000
    N1982    N        0.36119    0.34432    0.89074    1.000
    Si1983   Si       0.25477    0.35183    0.99483    1.000
    Si1984   Si       0.37849    0.35332    0.99258    1.000
    Si1985   Si       0.43427    0.34702    0.93218    1.000
    N1986    N        0.44668    0.30327    0.92715    1.000
    N1987    N        0.39495    0.34455    0.95268    1.000
    N1988    N        0.26936    0.38672    0.10690    1.000
    Si1989   Si       0.25981    0.40452    0.06821    1.000
    N1990    N        0.29926    0.40328    0.05043    1.000
    Si1991   Si       0.31905    0.36892    0.03220    1.000
    Si1992   Si       0.30537    0.41031    0.12105    1.000
    Si1993   Si       0.36457    0.36206    0.09501    1.000
    N1994    N        0.39819    0.38841    0.09446    1.000
    Si1995   Si       0.42567    0.40646    0.01162    1.000
    N1996    N        0.46904    0.40431    0.00517    1.000
    N1997    N        0.40972    0.36779    0.01991    1.000
    N1998    N        0.33599    0.37847    0.12473    1.000
    Si1999   Si       0.27616    0.41487    0.18449    1.000
    Si2000   Si       0.35603    0.38947    0.16192    1.000
    N2001    N        0.26461    0.36936    0.18106    1.000
    N2002    N        0.32392    0.38935    0.19088    1.000
    Si2003   Si       0.42440    0.40597    0.24288    1.000
    N2004    N        0.42880    0.40136    0.19900    1.000
    Si2005   Si       0.26162    0.37777    0.30621    1.000
    N2006    N        0.33440    0.39737    0.25678    1.000
    N2007    N        0.30722    0.37367    0.30993    1.000
    Si2008   Si       0.33241    0.40892    0.29918    1.000
    N2009    N        0.25509    0.39866    0.34416    1.000
    N2010    N        0.24037    0.39793    0.27536    1.000
    Si2011   Si       0.30864    0.36677    0.35522    1.000
    N2012    N        0.37357    0.39779    0.30899    1.000
    Si2013   Si       0.46944    0.39729    0.30310    1.000
    Si2014   Si       0.38755    0.38060    0.34736    1.000
    N2015    N        0.46416    0.41168    0.26068    1.000
    N2016    N        0.40626    0.36734    0.25473    1.000
    Si2017   Si       0.24934    0.41664    0.46627    1.000
    Si2018   Si       0.25691    0.40529    0.39021    1.000
    N2019    N        0.30022    0.38873    0.38918    1.000
    Si2020   Si       0.31573    0.40860    0.42529    1.000
    N2021    N        0.33593    0.38467    0.45776    1.000
    N2022    N        0.27002    0.38310    0.48464    1.000
    Si2023   Si       0.42944    0.38132    0.46352    1.000
    N2024    N        0.45894    0.36564    0.43453    1.000
    N2025    N        0.46456    0.38350    0.49231    1.000
    N2026    N        0.40985    0.40323    0.37692    1.000
    Si2027   Si       0.38908    0.40117    0.41557    1.000
    N2028    N        0.41096    0.41720    0.44852    1.000
    Si2029   Si       0.47799    0.37525    0.39584    1.000
    N2030    N        0.47800    0.41661    0.38630    1.000
    N2031    N        0.27928    0.37830    0.55708    1.000
    N2032    N        0.32085    0.40596    0.59881    1.000
    Si2033   Si       0.30502    0.41569    0.56049    1.000
    Si2034   Si       0.36238    0.39197    0.60824    1.000
    N2035    N        0.31999    0.41889    0.52062    1.000
    Si2036   Si       0.31207    0.38409    0.49695    1.000
    N2037    N        0.43640    0.38956    0.61050    1.000
    Si2038   Si       0.42016    0.38630    0.56915    1.000
    N2039    N        0.37820    0.37463    0.57236    1.000
    Si2040   Si       0.46854    0.40686    0.52855    1.000
    N2041    N        0.49234    0.39543    0.56147    1.000
    N2042    N        0.30458    0.40764    0.66885    1.000
    N2043    N        0.28287    0.39625    0.73644    1.000
    Si2044   Si       0.28045    0.38291    0.69471    1.000
    Si2045   Si       0.29162    0.39345    0.62859    1.000
    N2046    N        0.25707    0.41751    0.62265    1.000
    N2047    N        0.39799    0.36867    0.70822    1.000
    N2048    N        0.45816    0.40752    0.73606    1.000
    Si2049   Si       0.43718    0.39540    0.69902    1.000
    N2050    N        0.36843    0.36806    0.64341    1.000
    N2051    N        0.46790    0.38304    0.67181    1.000
    N2052    N        0.35119    0.39676    0.75763    1.000
    Si2053   Si       0.30955    0.39639    0.77382    1.000
    N2054    N        0.31004    0.37004    0.85600    1.000
    Si2055   Si       0.25211    0.40992    0.82263    1.000
    N2056    N        0.24763    0.36607    0.81878    1.000
    N2057    N        0.25587    0.41464    0.86633    1.000
    Si2058   Si       0.35352    0.36314    0.85395    1.000
    Si2059   Si       0.25303    0.42249    0.75515    1.000
    N2060    N        0.37239    0.40234    0.84711    1.000
    N2061    N        0.41663    0.38419    0.79640    1.000
    Si2062   Si       0.45274    0.39783    0.77887    1.000
    Si2063   Si       0.40364    0.41783    0.82399    1.000
    Si2064   Si       0.26274    0.41024    0.94501    1.000
    Si2065   Si       0.29372    0.40261    0.88142    1.000
    N2066    N        0.28623    0.38328    0.92065    1.000
    N2067    N        0.25844    0.39455    0.98537    1.000
    N2068    N        0.34457    0.38214    0.99821    1.000
    Si2069   Si       0.44824    0.40846    0.88731    1.000
    Si2070   Si       0.48693    0.36889    0.98602    1.000
    N2071    N        0.47115    0.36538    0.94542    1.000
    N2072    N        0.43164    0.36959    0.89549    1.000
    N2073    N        0.32600    0.44323    0.10063    1.000
    Si2074   Si       0.31847    0.44184    0.05753    1.000
    N2075    N        0.24973    0.44442    0.08136    1.000
    Si2076   Si       0.25556    0.47360    0.04991    1.000
    N2077    N        0.35806    0.43877    0.03589    1.000
    N2078    N        0.24967    0.45709    0.01169    1.000
    Si2079   Si       0.35245    0.47569    0.11133    1.000
    Si2080   Si       0.47352    0.43843    0.03331    1.000
    N2081    N        0.42963    0.44117    0.04010    1.000
    N2082    N        0.39076    0.46134    0.09403    1.000
    Si2083   Si       0.39196    0.46199    0.04976    1.000
    Si2084   Si       0.40577    0.42610    0.11587    1.000
    Si2085   Si       0.48639    0.44010    0.10801    1.000
    N2086    N        0.48573    0.41904    0.06994    1.000
    Si2087   Si       0.24772    0.45741    0.12432    1.000
    Si2088   Si       0.32999    0.42115    0.22076    1.000
    N2089    N        0.27835    0.43532    0.14696    1.000
    N2090    N        0.29075    0.44115    0.21639    1.000
    N2091    N        0.35994    0.45014    0.21444    1.000
    Si2092   Si       0.27168    0.48017    0.21847    1.000
    N2093    N        0.44614    0.42799    0.12766    1.000
    Si2094   Si       0.44495    0.43138    0.17209    1.000
    N2095    N        0.48754    0.43400    0.17733    1.000
    N2096    N        0.47430    0.47751    0.23417    1.000
    N2097    N        0.42293    0.46819    0.18175    1.000
    N2098    N        0.37850    0.42516    0.15083    1.000
    Si2099   Si       0.38016    0.46043    0.17673    1.000
    N2100    N        0.31545    0.44705    0.30671    1.000
    N2101    N        0.40169    0.43649    0.26643    1.000
    Si2102   Si       0.39999    0.43293    0.30869    1.000
    N2103    N        0.37792    0.46274    0.32988    1.000
    Si2104   Si       0.44277    0.43098    0.36477    1.000
    N2105    N        0.43459    0.47305    0.36768    1.000
    Si2106   Si       0.37980    0.46979    0.24827    1.000
    N2107    N        0.43936    0.42131    0.32280    1.000
    N2108    N        0.35403    0.42531    0.40900    1.000
    N2109    N        0.32202    0.45229    0.45343    1.000
    Si2110   Si       0.28441    0.46620    0.43389    1.000
    Si2111   Si       0.34942    0.46862    0.41997    1.000
    N2112    N        0.25556    0.45344    0.48868    1.000
    N2113    N        0.27202    0.42422    0.42982    1.000
    Si2114   Si       0.33619    0.44990    0.49551    1.000
    N2115    N        0.43634    0.47264    0.49116    1.000
    Si2116   Si       0.40460    0.45455    0.46590    1.000
    Si2117   Si       0.48243    0.46562    0.48487    1.000
    N2118    N        0.27344    0.44757    0.56245    1.000
    Si2119   Si       0.26588    0.45453    0.60261    1.000
    Si2120   Si       0.24431    0.44703    0.53100    1.000
    N2121    N        0.42892    0.41949    0.54410    1.000
    Si2122   Si       0.41255    0.45542    0.52597    1.000
    Si2123   Si       0.39585    0.46709    0.59666    1.000
    N2124    N        0.38123    0.43008    0.61341    1.000
    N2125    N        0.38027    0.44440    0.50012    1.000
    N2126    N        0.43542    0.46180    0.61466    1.000
    N2127    N        0.29956    0.47094    0.62780    1.000
    Si2128   Si       0.31335    0.45147    0.66500    1.000
    N2129    N        0.35097    0.45487    0.68804    1.000
    N2130    N        0.29307    0.47394    0.69617    1.000
    Si2131   Si       0.32838    0.47437    0.71880    1.000
    N2132    N        0.39815    0.44310    0.73432    1.000
    Si2133   Si       0.42039    0.42436    0.63225    1.000
    Si2134   Si       0.47389    0.47130    0.63126    1.000
    N2135    N        0.41939    0.42600    0.67492    1.000
    Si2136   Si       0.39396    0.45744    0.69257    1.000
    N2137    N        0.45476    0.48320    0.73395    1.000
    Si2138   Si       0.43884    0.44737    0.74965    1.000
    N2139    N        0.32770    0.45776    0.75852    1.000
    Si2140   Si       0.28872    0.46670    0.78021    1.000
    N2141    N        0.25374    0.46508    0.75335    1.000
    N2142    N        0.28025    0.42434    0.79217    1.000
    Si2143   Si       0.36663    0.43741    0.76284    1.000
    N2144    N        0.43487    0.43106    0.85051    1.000
    N2145    N        0.38087    0.45057    0.80146    1.000
    N2146    N        0.45018    0.44071    0.78939    1.000
    Si2147   Si       0.46809    0.45166    0.82728    1.000
    N2148    N        0.36811    0.47645    0.86344    1.000
    N2149    N        0.31795    0.43863    0.87756    1.000
    N2150    N        0.34400    0.45947    0.97405    1.000
    N2151    N        0.27477    0.45222    0.94916    1.000
    Si2152   Si       0.31072    0.47556    0.95181    1.000
    Si2153   Si       0.35837    0.42323    0.99561    1.000
    Si2154   Si       0.25301    0.48259    0.97659    1.000
    N2155    N        0.39805    0.41949    0.98227    1.000
    Si2156   Si       0.36097    0.43211    0.87528    1.000
    N2157    N        0.37574    0.42367    0.91403    1.000
    Si2158   Si       0.48208    0.45503    0.93100    1.000
    N2159    N        0.44293    0.43558    0.92159    1.000
    Si2160   Si       0.40486    0.43822    0.94407    1.000
    N2161    N        0.34280    0.51403    0.09118    1.000
    Si2162   Si       0.31394    0.52186    0.05802    1.000
    Si2163   Si       0.24462    0.52948    0.08504    1.000
    N2164    N        0.25390    0.50189    0.11670    1.000
    N2165    N        0.29835    0.48131    0.05128    1.000
    N2166    N        0.38517    0.49776    0.02658    1.000
    N2167    N        0.47905    0.48454    0.10435    1.000
    Si2168   Si       0.48541    0.50623    0.06682    1.000
    N2169    N        0.48980    0.48000    0.02983    1.000
    N2170    N        0.35438    0.48702    0.15281    1.000
    N2171    N        0.35552    0.52515    0.21002    1.000
    Si2172   Si       0.26283    0.52136    0.15492    1.000
    N2173    N        0.28833    0.51643    0.23072    1.000
    Si2174   Si       0.34479    0.52747    0.16771    1.000
    N2175    N        0.24876    0.48860    0.18316    1.000
    Si2176   Si       0.44157    0.50012    0.20597    1.000
    Si2177   Si       0.47629    0.51666    0.13522    1.000
    N2178    N        0.47903    0.50683    0.17677    1.000
    N2179    N        0.41089    0.50031    0.24031    1.000
    N2180    N        0.32577    0.51228    0.33311    1.000
    N2181    N        0.34935    0.49222    0.26949    1.000
    Si2182   Si       0.32988    0.52690    0.25113    1.000
    Si2183   Si       0.34133    0.47918    0.30969    1.000
    Si2184   Si       0.39796    0.49592    0.35284    1.000
    N2185    N        0.40015    0.52630    0.31935    1.000
    N2186    N        0.47138    0.53132    0.30052    1.000
    Si2187   Si       0.48292    0.50806    0.26582    1.000
    N2188    N        0.30940    0.48473    0.40292    1.000
    Si2189   Si       0.33110    0.51265    0.37699    1.000
    N2190    N        0.24582    0.48547    0.43343    1.000
    N2191    N        0.48676    0.50902    0.49383    1.000
    Si2192   Si       0.39872    0.51647    0.41708    1.000
    N2193    N        0.44311    0.50914    0.43231    1.000
    Si2194   Si       0.44679    0.51398    0.47577    1.000
    N2195    N        0.36865    0.49612    0.38808    1.000
    N2196    N        0.41818    0.52944    0.37977    1.000
    N2197    N        0.38296    0.48542    0.44613    1.000
    Si2198   Si       0.45520    0.50522    0.38829    1.000
    N2199    N        0.33506    0.48865    0.51279    1.000
    Si2200   Si       0.33138    0.53052    0.51227    1.000
    N2201    N        0.24292    0.52263    0.57420    1.000
    Si2202   Si       0.25092    0.53532    0.52906    1.000
    Si2203   Si       0.32093    0.50777    0.61852    1.000
    N2204    N        0.36292    0.49905    0.60513    1.000
    Si2205   Si       0.37861    0.51970    0.56742    1.000
    N2206    N        0.39995    0.48271    0.55646    1.000
    N2207    N        0.33610    0.51934    0.65812    1.000
    N2208    N        0.33502    0.51701    0.72605    1.000
    N2209    N        0.24668    0.52557    0.64846    1.000
    Si2210   Si       0.25231    0.48155    0.71040    1.000
    N2211    N        0.24067    0.52375    0.71498    1.000
    Si2212   Si       0.44182    0.52110    0.67356    1.000
    N2213    N        0.47098    0.48915    0.67056    1.000
    N2214    N        0.40516    0.49639    0.67338    1.000
    Si2215   Si       0.37819    0.51732    0.64736    1.000
    Si2216   Si       0.46454    0.52583    0.74136    1.000
    N2217    N        0.28316    0.50548    0.79885    1.000
    N2218    N        0.31290    0.51746    0.85764    1.000
    N2219    N        0.34742    0.51609    0.79784    1.000
    Si2220   Si       0.31093    0.53179    0.81843    1.000
    Si2221   Si       0.24401    0.51766    0.81226    1.000
    Si2222   Si       0.37190    0.48838    0.82074    1.000
    N2223    N        0.40835    0.51355    0.83028    1.000
    N2224    N        0.47147    0.49644    0.83327    1.000
    Si2225   Si       0.44723    0.52814    0.81721    1.000
    N2226    N        0.28898    0.50801    0.97165    1.000
    N2227    N        0.33113    0.49404    0.92038    1.000
    Si2228   Si       0.34850    0.53378    0.92300    1.000
    Si2229   Si       0.32735    0.48252    0.87864    1.000
    Si2230   Si       0.40119    0.50692    0.87282    1.000
    Si2231   Si       0.43503    0.50479    0.93687    1.000
    N2232    N        0.40541    0.48062    0.95398    1.000
    N2233    N        0.36612    0.52965    0.96422    1.000
    Si2234   Si       0.37380    0.49034    0.98389    1.000
    Si2235   Si       0.47976    0.50509    0.87648    1.000
    N2236    N        0.43951    0.50359    0.89269    1.000
    N2237    N        0.47214    0.49141    0.95317    1.000
    Si2238   Si       0.31369    0.58250    0.01466    1.000
    Si2239   Si       0.29660    0.58473    0.08602    1.000
    N2240    N        0.28324    0.54618    0.07457    1.000
    N2241    N        0.33551    0.54986    0.03219    1.000
    N2242    N        0.33828    0.58689    0.09670    1.000
    Si2243   Si       0.36015    0.55152    0.10452    1.000
    N2244    N        0.40627    0.55933    0.00988    1.000
    Si2245   Si       0.44870    0.56022    0.02326    1.000
    Si2246   Si       0.43589    0.55585    0.09142    1.000
    N2247    N        0.39410    0.55277    0.07635    1.000
    N2248    N        0.45811    0.53791    0.05899    1.000
    Si2249   Si       0.37804    0.53883    0.03758    1.000
    Si2250   Si       0.28023    0.58043    0.15532    1.000
    N2251    N        0.30263    0.54216    0.15654    1.000
    N2252    N        0.24205    0.57599    0.23526    1.000
    N2253    N        0.24234    0.55882    0.15968    1.000
    N2254    N        0.37275    0.55314    0.14594    1.000
    N2255    N        0.43955    0.53902    0.12942    1.000
    Si2256   Si       0.41341    0.55911    0.15859    1.000
    N2257    N        0.42443    0.54301    0.19795    1.000
    Si2258   Si       0.45268    0.56629    0.22553    1.000
    Si2259   Si       0.39108    0.53858    0.23096    1.000
    N2260    N        0.48592    0.53928    0.23516    1.000
    Si2261   Si       0.30587    0.55004    0.32344    1.000
    N2262    N        0.27374    0.55440    0.35282    1.000
    N2263    N        0.32922    0.58715    0.31977    1.000
    N2264    N        0.29826    0.54666    0.28138    1.000
    Si2265   Si       0.26453    0.54414    0.25572    1.000
    N2266    N        0.36079    0.55838    0.26007    1.000
    Si2267   Si       0.34284    0.59418    0.27832    1.000
    N2268    N        0.43539    0.58144    0.32851    1.000
    N2269    N        0.42745    0.56763    0.26047    1.000
    Si2270   Si       0.43032    0.54826    0.30064    1.000
    Si2271   Si       0.43775    0.56629    0.37052    1.000
    Si2272   Si       0.49571    0.55273    0.33229    1.000
    Si2273   Si       0.25144    0.56380    0.46194    1.000
    N2274    N        0.28358    0.58540    0.48498    1.000
    N2275    N        0.33091    0.55290    0.38890    1.000
    N2276    N        0.26910    0.55661    0.42526    1.000
    Si2277   Si       0.29136    0.57040    0.39022    1.000
    N2278    N        0.35087    0.56043    0.48591    1.000
    Si2279   Si       0.32425    0.59268    0.47306    1.000
    Si2280   Si       0.35951    0.58130    0.40572    1.000
    N2281    N        0.47312    0.59219    0.44917    1.000
    N2282    N        0.38491    0.55576    0.43014    1.000
    N2283    N        0.47700    0.54572    0.37147    1.000
    N2284    N        0.43106    0.55239    0.48755    1.000
    Si2285   Si       0.39133    0.57015    0.47193    1.000
    Si2286   Si       0.45849    0.58838    0.49250    1.000
    Si2287   Si       0.31178    0.56698    0.56912    1.000
    Si2288   Si       0.25598    0.54447    0.60925    1.000
    N2289    N        0.35129    0.54749    0.54865    1.000
    N2290    N        0.29978    0.54288    0.60358    1.000
    N2291    N        0.29330    0.53843    0.53396    1.000
    N2292    N        0.23891    0.58536    0.60724    1.000
    Si2293   Si       0.48690    0.54473    0.61601    1.000
    Si2294   Si       0.37478    0.58304    0.55904    1.000
    N2295    N        0.40272    0.55347    0.57833    1.000
    N2296    N        0.46950    0.56324    0.58281    1.000
    Si2297   Si       0.42371    0.56660    0.61343    1.000
    N2298    N        0.29012    0.56511    0.68442    1.000
    Si2299   Si       0.24902    0.54989    0.68255    1.000
    N2300    N        0.35340    0.57565    0.70150    1.000
    Si2301   Si       0.32571    0.54154    0.69321    1.000
    Si2302   Si       0.37231    0.59146    0.66538    1.000
    N2303    N        0.39041    0.55778    0.64396    1.000
    N2304    N        0.44970    0.54787    0.70645    1.000
    N2305    N        0.45151    0.54543    0.64008    1.000
    Si2306   Si       0.46182    0.58887    0.70374    1.000
    N2307    N        0.29848    0.57438    0.82252    1.000
    Si2308   Si       0.26250    0.58408    0.84639    1.000
    N2309    N        0.32592    0.57521    0.76289    1.000
    Si2310   Si       0.28946    0.58758    0.78223    1.000
    N2311    N        0.25334    0.56967    0.77213    1.000
    Si2312   Si       0.35105    0.53977    0.76046    1.000
    N2313    N        0.38874    0.55810    0.75780    1.000
    N2314    N        0.46079    0.56390    0.83896    1.000
    Si2315   Si       0.42442    0.57805    0.76866    1.000
    N2316    N        0.45047    0.54290    0.77709    1.000
    N2317    N        0.31875    0.56517    0.93510    1.000
    Si2318   Si       0.28394    0.54788    0.95457    1.000
    N2319    N        0.24604    0.54638    0.93172    1.000
    N2320    N        0.27861    0.57326    0.98956    1.000
    Si2321   Si       0.24136    0.58530    0.91407    1.000
    N2322    N        0.38092    0.53915    0.89361    1.000
    N2323    N        0.47428    0.54340    0.99412    1.000
    Si2324   Si       0.47266    0.56281    0.95578    1.000
    N2325    N        0.38200    0.58912    0.93920    1.000
    Si2326   Si       0.39597    0.55997    0.96939    1.000
    N2327    N        0.42931    0.54877    0.94150    1.000
    Si2328   Si       0.40785    0.57229    0.90819    1.000
    N2329    N        0.30642    0.60935    0.05016    1.000
    Si2330   Si       0.34277    0.62332    0.07398    1.000
    Si2331   Si       0.28434    0.64574    0.03960    1.000
    Si2332   Si       0.28055    0.64684    0.11111    1.000
    N2333    N        0.25506    0.63990    0.00850    1.000
    Si2334   Si       0.35008    0.64977    0.00613    1.000
    N2335    N        0.27773    0.60471    0.11977    1.000
    N2336    N        0.32181    0.65458    0.09826    1.000
    N2337    N        0.37120    0.63946    0.04401    1.000
    Si2338   Si       0.46029    0.62440    0.06391    1.000
    N2339    N        0.45482    0.60277    0.02488    1.000
    N2340    N        0.44442    0.59897    0.09436    1.000
    Si2341   Si       0.31679    0.62637    0.21122    1.000
    Si2342   Si       0.25269    0.61441    0.21827    1.000
    N2343    N        0.35691    0.61462    0.19835    1.000
    N2344    N        0.28725    0.60469    0.19132    1.000
    Si2345   Si       0.39865    0.62921    0.18924    1.000
    N2346    N        0.41949    0.60279    0.16390    1.000
    Si2347   Si       0.44954    0.61712    0.13396    1.000
    Si2348   Si       0.45878    0.64098    0.23461    1.000
    N2349    N        0.47117    0.60559    0.21374    1.000
    N2350    N        0.41667    0.63901    0.22843    1.000
    N2351    N        0.26970    0.63258    0.31573    1.000
    Si2352   Si       0.33527    0.61758    0.35172    1.000
    Si2353   Si       0.26284    0.61982    0.35629    1.000
    Si2354   Si       0.28353    0.63827    0.27389    1.000
    N2355    N        0.31168    0.61333    0.25276    1.000
    N2356    N        0.24815    0.64411    0.25021    1.000
    N2357    N        0.37616    0.62488    0.27369    1.000
    N2358    N        0.44885    0.63336    0.28134    1.000
    Si2359   Si       0.45891    0.61630    0.32079    1.000
    N2360    N        0.43728    0.64506    0.34592    1.000
    Si2361   Si       0.41538    0.60979    0.26340    1.000
    N2362    N        0.30004    0.61267    0.37669    1.000
    Si2363   Si       0.30612    0.63324    0.41433    1.000
    N2364    N        0.26870    0.63784    0.43699    1.000
    N2365    N        0.33300    0.60515    0.43334    1.000
    N2366    N        0.45429    0.65470    0.42375    1.000
    N2367    N        0.43112    0.59818    0.39661    1.000
    N2368    N        0.40467    0.61085    0.46618    1.000
    Si2369   Si       0.40827    0.63218    0.37527    1.000
    N2370    N        0.37079    0.60896    0.37401    1.000
    Si2371   Si       0.43841    0.61562    0.43688    1.000
    Si2372   Si       0.28682    0.61349    0.51761    1.000
    Si2373   Si       0.34010    0.63106    0.61271    1.000
    N2374    N        0.32763    0.62240    0.50721    1.000
    N2375    N        0.26421    0.64944    0.50895    1.000
    N2376    N        0.28155    0.59862    0.55730    1.000
    N2377    N        0.34250    0.59842    0.58498    1.000
    N2378    N        0.30214    0.65273    0.60910    1.000
    Si2379   Si       0.40742    0.63405    0.50295    1.000
    N2380    N        0.39247    0.62061    0.54122    1.000
    Si2381   Si       0.40776    0.63949    0.58043    1.000
    N2382    N        0.45050    0.62885    0.50778    1.000
    N2383    N        0.42046    0.61006    0.61119    1.000
    N2384    N        0.31259    0.62589    0.71795    1.000
    N2385    N        0.33730    0.61362    0.65205    1.000
    Si2386   Si       0.30433    0.60703    0.68092    1.000
    N2387    N        0.27124    0.62865    0.66076    1.000
    Si2388   Si       0.34596    0.60203    0.73646    1.000
    Si2389   Si       0.28052    0.64550    0.74001    1.000
    N2390    N        0.23955    0.63468    0.73080    1.000
    Si2391   Si       0.42946    0.62717    0.64992    1.000
    Si2392   Si       0.41035    0.63393    0.71970    1.000
    N2393    N        0.43856    0.60644    0.73633    1.000
    N2394    N        0.46634    0.61563    0.66879    1.000
    N2395    N        0.40118    0.61853    0.67970    1.000
    N2396    N        0.28210    0.63084    0.78491    1.000
    N2397    N        0.35296    0.64110    0.80738    1.000
    Si2398   Si       0.31047    0.64720    0.81468    1.000
    N2399    N        0.30516    0.65585    0.85682    1.000
    N2400    N        0.45985    0.64226    0.83961    1.000
    Si2401   Si       0.39198    0.63013    0.78991    1.000
    Si2402   Si       0.44124    0.60300    0.84424    1.000
    N2403    N        0.41589    0.59868    0.80591    1.000
    N2404    N        0.37926    0.62809    0.74908    1.000
    Si2405   Si       0.34234    0.60026    0.94846    1.000
    Si2406   Si       0.24539    0.60178    0.98925    1.000
    Si2407   Si       0.29394    0.63467    0.89366    1.000
    N2408    N        0.32798    0.63180    0.92049    1.000
    N2409    N        0.33754    0.61189    0.98923    1.000
    N2410    N        0.27139    0.59629    0.88685    1.000
    N2411    N        0.46429    0.60575    0.95317    1.000
    Si2412   Si       0.46075    0.62442    0.91404    1.000
    Si2413   Si       0.45449    0.63051    0.98906    1.000
    N2414    N        0.43363    0.59955    0.88827    1.000
    N2415    N        0.41419    0.64706    0.97954    1.000
    Si2416   Si       0.34581    0.68936    0.11025    1.000
    N2417    N        0.31590    0.66975    0.02281    1.000
    N2418    N        0.26205    0.65847    0.07340    1.000
    Si2419   Si       0.46940    0.68742    0.02887    1.000
    Si2420   Si       0.39994    0.67183    0.05852    1.000
    N2421    N        0.38584    0.67783    0.09935    1.000
    N2422    N        0.43948    0.66092    0.05057    1.000
    N2423    N        0.39012    0.70990    0.03750    1.000
    N2424    N        0.48592    0.66105    0.99598    1.000
    N2425    N        0.26581    0.71173    0.24287    1.000
    Si2426   Si       0.29282    0.69198    0.17088    1.000
    N2427    N        0.26513    0.66620    0.14727    1.000
    N2428    N        0.35590    0.68259    0.22572    1.000
    N2429    N        0.33265    0.69317    0.15098    1.000
    N2430    N        0.29927    0.66815    0.20669    1.000
    Si2431   Si       0.31215    0.69480    0.23977    1.000
    Si2432   Si       0.36177    0.69140    0.18308    1.000
    N2433    N        0.45010    0.65943    0.12606    1.000
    N2434    N        0.46861    0.68315    0.24451    1.000
    Si2435   Si       0.41444    0.68336    0.13173    1.000
    N2436    N        0.39457    0.66863    0.16829    1.000
    Si2437   Si       0.32553    0.69347    0.31390    1.000
    N2438    N        0.30874    0.67398    0.27950    1.000
    Si2439   Si       0.26202    0.67446    0.32806    1.000
    N2440    N        0.28716    0.70860    0.33465    1.000
    N2441    N        0.33959    0.66077    0.33891    1.000
    N2442    N        0.24964    0.66303    0.36741    1.000
    Si2443   Si       0.45471    0.68305    0.35643    1.000
    N2444    N        0.46099    0.70495    0.31820    1.000
    N2445    N        0.40411    0.69326    0.27770    1.000
    Si2446   Si       0.44537    0.68030    0.28510    1.000
    Si2447   Si       0.38293    0.66412    0.25279    1.000
    N2448    N        0.24684    0.70201    0.46600    1.000
    Si2449   Si       0.35635    0.67941    0.37467    1.000
    N2450    N        0.31345    0.68210    0.47552    1.000
    Si2451   Si       0.32577    0.70113    0.43736    1.000
    N2452    N        0.32900    0.66849    0.40698    1.000
    Si2453   Si       0.27115    0.66666    0.46975    1.000
    N2454    N        0.39433    0.66938    0.39395    1.000
    Si2455   Si       0.38801    0.71141    0.47627    1.000
    N2456    N        0.38060    0.67044    0.49522    1.000
    Si2457   Si       0.42738    0.68994    0.41641    1.000
    N2458    N        0.42729    0.70893    0.45645    1.000
    N2459    N        0.44718    0.71485    0.38611    1.000
    Si2460   Si       0.30592    0.68130    0.57711    1.000
    N2461    N        0.33191    0.69010    0.54315    1.000
    N2462    N        0.26502    0.69155    0.56492    1.000
    Si2463   Si       0.33899    0.66475    0.50660    1.000
    N2464    N        0.32563    0.71000    0.60602    1.000
    Si2465   Si       0.36855    0.70246    0.61040    1.000
    N2466    N        0.45185    0.70125    0.52304    1.000
    Si2467   Si       0.46250    0.67836    0.61070    1.000
    N2468    N        0.37270    0.65966    0.59946    1.000
    Si2469   Si       0.46692    0.66019    0.53348    1.000
    N2470    N        0.44729    0.65890    0.57357    1.000
    N2471    N        0.24657    0.68756    0.63030    1.000
    Si2472   Si       0.28239    0.66729    0.64559    1.000
    N2473    N        0.29561    0.70425    0.66967    1.000
    N2474    N        0.27991    0.68785    0.74055    1.000
    N2475    N        0.41215    0.67990    0.71203    1.000
    N2476    N        0.43339    0.66860    0.64142    1.000
    Si2477   Si       0.41856    0.69963    0.67119    1.000
    N2478    N        0.31307    0.68946    0.80531    1.000
    Si2479   Si       0.32160    0.69651    0.85581    1.000
    Si2480   Si       0.27926    0.70331    0.78268    1.000
    Si2481   Si       0.35927    0.68408    0.80148    1.000
    N2482    N        0.24473    0.68479    0.80288    1.000
    N2483    N        0.36060    0.70516    0.76263    1.000
    N2484    N        0.36328    0.69682    0.84458    1.000
    N2485    N        0.40827    0.67065    0.79211    1.000
    Si2486   Si       0.44331    0.67975    0.82079    1.000
    N2487    N        0.47828    0.69148    0.79323    1.000
    Si2488   Si       0.40155    0.69223    0.75288    1.000
    N2489    N        0.43060    0.70757    0.85164    1.000
    Si2490   Si       0.24090    0.67654    0.99467    1.000
    Si2491   Si       0.31668    0.70398    0.99289    1.000
    N2492    N        0.32552    0.70098    0.90100    1.000
    Si2493   Si       0.34531    0.67127    0.92540    1.000
    N2494    N        0.34505    0.67697    0.96825    1.000
    N2495    N        0.27391    0.70047    0.98203    1.000
    N2496    N        0.26299    0.65900    0.91250    1.000
    Si2497   Si       0.41359    0.67469    0.94782    1.000
    Si2498   Si       0.47805    0.69592    0.90894    1.000
    Si2499   Si       0.39406    0.70244    0.87419    1.000
    N2500    N        0.45115    0.66609    0.92433    1.000
    N2501    N        0.38649    0.67431    0.91078    1.000
    N2502    N        0.33264    0.73933    0.01541    1.000
    Si2503   Si       0.31634    0.76163    0.10042    1.000
    N2504    N        0.33683    0.72439    0.08763    1.000
    N2505    N        0.27613    0.75433    0.11533    1.000
    N2506    N        0.24946    0.75714    0.05051    1.000
    Si2507   Si       0.35775    0.73729    0.05116    1.000
    Si2508   Si       0.24036    0.75236    0.09201    1.000
    Si2509   Si       0.41039    0.72688    0.00325    1.000
    N2510    N        0.44848    0.76304    0.07888    1.000
    N2511    N        0.39963    0.76901    0.00994    1.000
    N2512    N        0.45114    0.72497    0.01590    1.000
    N2513    N        0.38047    0.77234    0.07352    1.000
    Si2514   Si       0.26385    0.76198    0.15685    1.000
    N2515    N        0.28260    0.73381    0.18082    1.000
    Si2516   Si       0.27966    0.74529    0.22250    1.000
    Si2517   Si       0.35896    0.75280    0.21969    1.000
    N2518    N        0.32143    0.74009    0.23956    1.000
    Si2519   Si       0.40853    0.75149    0.16740    1.000
    Si2520   Si       0.47157    0.76939    0.19407    1.000
    N2521    N        0.37764    0.73233    0.18748    1.000
    N2522    N        0.42894    0.72339    0.13837    1.000
    Si2523   Si       0.45940    0.74678    0.11904    1.000
    N2524    N        0.38987    0.75878    0.25099    1.000
    Si2525   Si       0.26778    0.74674    0.32816    1.000
    N2526    N        0.34394    0.72891    0.29838    1.000
    Si2527   Si       0.32321    0.76124    0.27791    1.000
    N2528    N        0.28661    0.76488    0.36303    1.000
    N2529    N        0.28194    0.76677    0.29391    1.000
    N2530    N        0.34733    0.72206    0.36636    1.000
    Si2531   Si       0.30397    0.72635    0.37397    1.000
    Si2532   Si       0.37150    0.75323    0.35090    1.000
    N2533    N        0.39957    0.75467    0.32015    1.000
    Si2534   Si       0.38603    0.73285    0.28513    1.000
    Si2535   Si       0.25392    0.72939    0.43298    1.000
    N2536    N        0.29372    0.72294    0.41701    1.000
    N2537    N        0.36169    0.72275    0.44156    1.000
    Si2538   Si       0.43936    0.75928    0.38369    1.000
    Si2539   Si       0.36921    0.76101    0.42096    1.000
    Si2540   Si       0.45708    0.72296    0.48451    1.000
    N2541    N        0.45440    0.76733    0.48598    1.000
    N2542    N        0.39557    0.75841    0.38693    1.000
    Si2543   Si       0.34947    0.73095    0.54483    1.000
    N2544    N        0.27133    0.74735    0.61478    1.000
    Si2545   Si       0.24886    0.71826    0.59426    1.000
    N2546    N        0.32402    0.76602    0.54633    1.000
    N2547    N        0.38032    0.72939    0.57764    1.000
    Si2548   Si       0.45838    0.72519    0.55894    1.000
    N2549    N        0.43575    0.76133    0.55350    1.000
    Si2550   Si       0.40350    0.76504    0.58218    1.000
    N2551    N        0.37321    0.73906    0.50795    1.000
    N2552    N        0.45347    0.71952    0.60125    1.000
    Si2553   Si       0.34734    0.74068    0.74091    1.000
    Si2554   Si       0.30493    0.73119    0.63810    1.000
    N2555    N        0.30495    0.74658    0.73157    1.000
    N2556    N        0.33364    0.76359    0.64726    1.000
    N2557    N        0.24274    0.73837    0.69913    1.000
    Si2558   Si       0.27999    0.71815    0.70936    1.000
    Si2559   Si       0.46594    0.76019    0.70333    1.000
    N2560    N        0.37198    0.75504    0.70958    1.000
    Si2561   Si       0.37133    0.75633    0.66584    1.000
    Si2562   Si       0.45764    0.75182    0.62997    1.000
    N2563    N        0.38550    0.71884    0.64936    1.000
    N2564    N        0.48282    0.72810    0.72753    1.000
    N2565    N        0.44704    0.73599    0.66985    1.000
    N2566    N        0.29876    0.73594    0.85569    1.000
    N2567    N        0.27325    0.74608    0.79135    1.000
    Si2568   Si       0.26632    0.75492    0.83298    1.000
    Si2569   Si       0.29742    0.77280    0.76633    1.000
    N2570    N        0.34124    0.77105    0.77555    1.000
    N2571    N        0.42459    0.72708    0.75994    1.000
    Si2572   Si       0.46768    0.72366    0.76889    1.000
    N2573    N        0.46714    0.76108    0.78667    1.000
    Si2574   Si       0.44694    0.74444    0.86574    1.000
    Si2575   Si       0.42925    0.77059    0.76745    1.000
    Si2576   Si       0.26447    0.73341    0.95547    1.000
    Si2577   Si       0.30358    0.73779    0.90799    1.000
    N2578    N        0.25895    0.73484    0.91403    1.000
    N2579    N        0.30718    0.74389    0.95416    1.000
    Si2580   Si       0.32372    0.77023    0.98528    1.000
    Si2581   Si       0.42139    0.74235    0.92956    1.000
    N2582    N        0.39155    0.74097    0.89609    1.000
    N2583    N        0.46030    0.73527    0.90781    1.000
    N2584    N        0.41164    0.71446    0.96138    1.000
    N2585    N        0.31627    0.79270    0.06911    1.000
    Si2586   Si       0.28131    0.78686    0.04403    1.000
    N2587    N        0.29491    0.79649    0.00465    1.000
    N2588    N        0.25079    0.81977    0.04439    1.000
    N2589    N        0.27207    0.82676    0.10979    1.000
    N2590    N        0.44304    0.81532    0.04195    1.000
    Si2591   Si       0.47619    0.79317    0.06314    1.000
    Si2592   Si       0.37291    0.79127    0.11147    1.000
    Si2593   Si       0.41703    0.77879    0.05084    1.000
    N2594    N        0.33776    0.77965    0.13360    1.000
    Si2595   Si       0.35388    0.81871    0.23927    1.000
    N2596    N        0.34893    0.79149    0.20418    1.000
    N2597    N        0.28214    0.80070    0.17206    1.000
    Si2598   Si       0.32632    0.80174    0.16875    1.000
    N2599    N        0.25719    0.78234    0.23142    1.000
    N2600    N        0.49323    0.79439    0.22347    1.000
    N2601    N        0.39661    0.82958    0.24180    1.000
    N2602    N        0.46842    0.78077    0.15002    1.000
    Si2603   Si       0.41856    0.79197    0.24235    1.000
    N2604    N        0.40366    0.78550    0.13996    1.000
    Si2605   Si       0.43184    0.81144    0.16406    1.000
    N2606    N        0.42912    0.78240    0.19999    1.000
    N2607    N        0.34395    0.80004    0.27716    1.000
    N2608    N        0.34741    0.78872    0.34515    1.000
    Si2609   Si       0.25417    0.79245    0.27373    1.000
    Si2610   Si       0.36049    0.81983    0.31669    1.000
    N2611    N        0.25951    0.83510    0.27806    1.000
    Si2612   Si       0.42662    0.78698    0.31666    1.000
    N2613    N        0.44518    0.78699    0.27682    1.000
    N2614    N        0.40296    0.82331    0.32312    1.000
    Si2615   Si       0.48682    0.78213    0.26526    1.000
    N2616    N        0.45404    0.78197    0.34886    1.000
    Si2617   Si       0.31423    0.79597    0.37400    1.000
    N2618    N        0.33296    0.78445    0.41271    1.000
    Si2619   Si       0.32471    0.81266    0.44450    1.000
    N2620    N        0.33359    0.79636    0.48422    1.000
    Si2621   Si       0.25269    0.79846    0.45867    1.000
    N2622    N        0.28123    0.82114    0.43784    1.000
    N2623    N        0.26547    0.78342    0.49773    1.000
    Si2624   Si       0.37271    0.77953    0.49109    1.000
    N2625    N        0.39349    0.77847    0.45212    1.000
    Si2626   Si       0.43602    0.78880    0.45217    1.000
    N2627    N        0.45594    0.78602    0.41397    1.000
    Si2628   Si       0.48813    0.81547    0.40877    1.000
    Si2629   Si       0.30423    0.79022    0.51592    1.000
    Si2630   Si       0.33540    0.81164    0.56449    1.000
    N2631    N        0.31380    0.81948    0.60290    1.000
    N2632    N        0.29884    0.82641    0.53896    1.000
    N2633    N        0.24625    0.81724    0.59486    1.000
    Si2634   Si       0.25330    0.78387    0.62223    1.000
    N2635    N        0.37427    0.79616    0.57658    1.000
    N2636    N        0.40203    0.80384    0.51497    1.000
    Si2637   Si       0.44356    0.78979    0.52274    1.000
    N2638    N        0.47994    0.81226    0.53512    1.000
    N2639    N        0.42637    0.77948    0.61595    1.000
    Si2640   Si       0.31605    0.80399    0.64346    1.000
    N2641    N        0.27580    0.79667    0.65867    1.000
    Si2642   Si       0.24348    0.77930    0.68430    1.000
    Si2643   Si       0.25615    0.83198    0.73564    1.000
    N2644    N        0.39031    0.79819    0.66617    1.000
    Si2645   Si       0.41795    0.81929    0.63343    1.000
    N2646    N        0.38074    0.82915    0.72082    1.000
    N2647    N        0.43587    0.78312    0.72572    1.000
    N2648    N        0.46114    0.82894    0.64013    1.000
    Si2649   Si       0.39826    0.79122    0.71010    1.000
    N2650    N        0.27877    0.79598    0.84199    1.000
    N2651    N        0.28802    0.81414    0.76192    1.000
    N2652    N        0.35533    0.78230    0.84202    1.000
    Si2653   Si       0.31583    0.77641    0.85687    1.000
    Si2654   Si       0.36416    0.79578    0.80236    1.000
    Si2655   Si       0.42679    0.81348    0.82850    1.000
    N2656    N        0.40669    0.79405    0.79502    1.000
    N2657    N        0.46998    0.82060    0.82452    1.000
    N2658    N        0.42436    0.78176    0.85751    1.000
    Si2659   Si       0.33903    0.80919    0.92525    1.000
    N2660    N        0.35370    0.79174    0.96323    1.000
    N2661    N        0.32068    0.77732    0.89962    1.000
    N2662    N        0.23939    0.82500    0.97468    1.000
    N2663    N        0.24892    0.83036    0.89582    1.000
    Si2664   Si       0.38518    0.77903    0.87546    1.000
    N2665    N        0.47066    0.82102    0.97994    1.000
    Si2666   Si       0.45228    0.81770    0.93770    1.000
    N2667    N        0.37615    0.81175    0.90096    1.000
    Si2668   Si       0.39617    0.79250    0.97322    1.000
    N2669    N        0.42565    0.78288    0.94360    1.000
    Si2670   Si       0.26162    0.84904    0.07569    1.000
    N2671    N        0.30240    0.86271    0.06627    1.000
    N2672    N        0.35256    0.84707    0.03533    1.000
    Si2673   Si       0.32294    0.87682    0.02932    1.000
    Si2674   Si       0.33453    0.83249    0.07379    1.000
    N2675    N        0.36088    0.83564    0.10641    1.000
    Si2676   Si       0.26793    0.83069    0.00330    1.000
    N2677    N        0.29232    0.86605    0.00072    1.000
    Si2678   Si       0.44260    0.84480    0.00618    1.000
    N2679    N        0.45861    0.88207    0.09458    1.000
    N2680    N        0.41903    0.87452    0.03031    1.000
    Si2681   Si       0.38292    0.86327    0.00861    1.000
    N2682    N        0.26566    0.85197    0.21406    1.000
    N2683    N        0.27300    0.87876    0.15855    1.000
    N2684    N        0.32414    0.84899    0.23236    1.000
    Si2685   Si       0.30280    0.86737    0.19396    1.000
    N2686    N        0.32876    0.84602    0.16603    1.000
    Si2687   Si       0.26793    0.83739    0.15130    1.000
    Si2688   Si       0.36671    0.85872    0.14581    1.000
    N2689    N        0.46363    0.84058    0.18116    1.000
    N2690    N        0.43155    0.88820    0.21847    1.000
    Si2691   Si       0.43635    0.87418    0.17784    1.000
    N2692    N        0.40457    0.84828    0.16067    1.000
    N2693    N        0.33836    0.85606    0.32068    1.000
    Si2694   Si       0.31269    0.86949    0.35469    1.000
    Si2695   Si       0.28651    0.85685    0.25205    1.000
    N2696    N        0.29616    0.83464    0.37453    1.000
    N2697    N        0.43915    0.87562    0.28505    1.000
    Si2698   Si       0.42485    0.86174    0.32374    1.000
    N2699    N        0.45935    0.86537    0.34872    1.000
    Si2700   Si       0.41022    0.86954    0.25257    1.000
    N2701    N        0.39480    0.89102    0.34068    1.000
    N2702    N        0.34889    0.84716    0.43745    1.000
    Si2703   Si       0.26920    0.84687    0.40540    1.000
    Si2704   Si       0.36607    0.88398    0.45007    1.000
    N2705    N        0.27524    0.88915    0.41035    1.000
    Si2706   Si       0.47127    0.88497    0.38509    1.000
    N2707    N        0.48837    0.86483    0.49337    1.000
    Si2708   Si       0.46553    0.86239    0.45746    1.000
    N2709    N        0.47770    0.85731    0.41769    1.000
    N2710    N        0.43526    0.83169    0.46497    1.000
    N2711    N        0.38050    0.87645    0.49038    1.000
    Si2712   Si       0.28327    0.86539    0.52874    1.000
    Si2713   Si       0.27881    0.84722    0.59626    1.000
    N2714    N        0.27415    0.88274    0.56877    1.000
    Si2715   Si       0.35674    0.88436    0.52661    1.000
    N2716    N        0.24824    0.86712    0.50545    1.000
    N2717    N        0.36043    0.85098    0.55224    1.000
    N2718    N        0.31514    0.88943    0.51304    1.000
    Si2719   Si       0.47470    0.85617    0.53387    1.000
    N2720    N        0.41202    0.84602    0.59786    1.000
    N2721    N        0.43091    0.85268    0.53360    1.000
    Si2722   Si       0.40773    0.84404    0.49670    1.000
    Si2723   Si       0.39921    0.83071    0.55979    1.000
    N2724    N        0.27332    0.85994    0.70542    1.000
    Si2725   Si       0.29788    0.86513    0.67065    1.000
    N2726    N        0.27115    0.86792    0.63529    1.000
    N2727    N        0.32960    0.83620    0.66690    1.000
    N2728    N        0.33100    0.87075    0.74391    1.000
    Si2729   Si       0.40209    0.88351    0.61768    1.000
    Si2730   Si       0.37425    0.86420    0.74295    1.000
    N2731    N        0.46790    0.87965    0.74239    1.000
    Si2732   Si       0.46716    0.87006    0.63301    1.000
    Si2733   Si       0.37153    0.83803    0.67799    1.000
    N2734    N        0.40109    0.85928    0.65424    1.000
    Si2735   Si       0.31220    0.84888    0.77863    1.000
    N2736    N        0.29072    0.87920    0.80022    1.000
    Si2737   Si       0.24876    0.87856    0.79473    1.000
    N2738    N        0.29141    0.86777    0.86679    1.000
    Si2739   Si       0.26380    0.83411    0.85221    1.000
    N2740    N        0.34664    0.83567    0.80108    1.000
    N2741    N        0.23832    0.86467    0.75607    1.000
    Si2742   Si       0.37394    0.86743    0.81629    1.000
    N2743    N        0.39699    0.87317    0.77773    1.000
    N2744    N        0.40085    0.84671    0.84330    1.000
    Si2745   Si       0.48051    0.86481    0.82810    1.000
    Si2746   Si       0.43625    0.89116    0.77093    1.000
    Si2747   Si       0.34487    0.88240    0.93452    1.000
    N2748    N        0.32142    0.84733    0.92737    1.000
    Si2749   Si       0.28279    0.85784    0.90778    1.000
    N2750    N        0.36139    0.88535    0.97617    1.000
    N2751    N        0.26261    0.88830    0.93338    1.000
    N2752    N        0.40415    0.83429    0.98327    1.000
    N2753    N        0.46233    0.88352    0.98921    1.000
    Si2754   Si       0.39965    0.84514    0.88807    1.000
    Si2755   Si       0.45772    0.88241    0.89746    1.000
    N2756    N        0.37587    0.87763    0.90480    1.000
    N2757    N        0.43844    0.84781    0.91292    1.000
    N2758    N        0.26967    0.92336    0.10439    1.000
    N2759    N        0.33592    0.91733    0.03705    1.000
    Si2760   Si       0.36036    0.93397    0.06954    1.000
    N2761    N        0.33107    0.94696    0.10014    1.000
    Si2762   Si       0.44188    0.91830    0.00355    1.000
    N2763    N        0.39395    0.90849    0.08700    1.000
    N2764    N        0.45239    0.92656    0.04579    1.000
    N2765    N        0.39809    0.93044    0.00562    1.000
    Si2766   Si       0.42999    0.89689    0.06681    1.000
    N2767    N        0.47344    0.94790    0.10758    1.000
    N2768    N        0.26157    0.94282    0.23384    1.000
    Si2769   Si       0.25748    0.91648    0.14822    1.000
    N2770    N        0.31644    0.91012    0.20196    1.000
    Si2771   Si       0.35225    0.92838    0.18464    1.000
    Si2772   Si       0.30202    0.92567    0.23919    1.000
    Si2773   Si       0.46956    0.91016    0.12786    1.000
    Si2774   Si       0.42864    0.93109    0.21837    1.000
    N2775    N        0.36379    0.90315    0.15109    1.000
    N2776    N        0.43300    0.90778    0.15109    1.000
    N2777    N        0.38545    0.93571    0.21301    1.000
    Si2778   Si       0.39704    0.92141    0.12947    1.000
    Si2779   Si       0.29565    0.91738    0.30688    1.000
    N2780    N        0.33714    0.92489    0.31900    1.000
    N2781    N        0.29361    0.89629    0.26940    1.000
    Si2782   Si       0.36226    0.89127    0.30899    1.000
    Si2783   Si       0.33992    0.94844    0.35645    1.000
    N2784    N        0.27913    0.89426    0.34020    1.000
    Si2785   Si       0.37370    0.93894    0.25500    1.000
    Si2786   Si       0.45938    0.91383    0.27519    1.000
    N2787    N        0.47509    0.92713    0.31528    1.000
    N2788    N        0.43371    0.94215    0.26022    1.000
    N2789    N        0.37788    0.89589    0.26969    1.000
    Si2790   Si       0.31301    0.91175    0.41156    1.000
    N2791    N        0.33220    0.91230    0.45125    1.000
    Si2792   Si       0.31502    0.92700    0.48848    1.000
    N2793    N        0.27068    0.93442    0.48891    1.000
    N2794    N        0.30779    0.94588    0.38594    1.000
    N2795    N        0.33959    0.89262    0.38068    1.000
    N2796    N        0.37864    0.94770    0.37644    1.000
    N2797    N        0.39375    0.90271    0.42247    1.000
    Si2798   Si       0.38198    0.90441    0.37943    1.000
    N2799    N        0.44971    0.90161    0.46469    1.000
    N2800    N        0.45635    0.92502    0.40105    1.000
    Si2801   Si       0.42772    0.92589    0.43463    1.000
    Si2802   Si       0.34888    0.93330    0.58575    1.000
    N2803    N        0.30871    0.93048    0.60507    1.000
    Si2804   Si       0.26914    0.92260    0.58524    1.000
    N2805    N        0.36900    0.91781    0.55005    1.000
    N2806    N        0.36895    0.91466    0.61929    1.000
    Si2807   Si       0.45747    0.92227    0.58156    1.000
    N2808    N        0.47311    0.89955    0.54580    1.000
    Si2809   Si       0.47563    0.91040    0.49981    1.000
    N2810    N        0.32797    0.94277    0.73260    1.000
    N2811    N        0.25945    0.92963    0.73811    1.000
    Si2812   Si       0.33565    0.90450    0.71730    1.000
    Si2813   Si       0.33451    0.92739    0.64498    1.000
    N2814    N        0.32008    0.90195    0.67681    1.000
    Si2815   Si       0.24372    0.89304    0.71764    1.000
    N2816    N        0.44325    0.90426    0.61822    1.000
    Si2817   Si       0.47970    0.89819    0.70263    1.000
    N2818    N        0.44265    0.91519    0.68673    1.000
    Si2819   Si       0.41197    0.92717    0.71425    1.000
    Si2820   Si       0.44967    0.93653    0.64972    1.000
    N2821    N        0.38018    0.89797    0.71415    1.000
    N2822    N        0.28544    0.93575    0.84508    1.000
    N2823    N        0.34967    0.90014    0.82796    1.000
    Si2824   Si       0.30637    0.89708    0.83751    1.000
    Si2825   Si       0.24214    0.93471    0.84048    1.000
    Si2826   Si       0.36739    0.93956    0.83499    1.000
    Si2827   Si       0.43824    0.92210    0.83600    1.000
    N2828    N        0.42805    0.93100    0.75466    1.000
    N2829    N        0.40549    0.94370    0.81814    1.000
    N2830    N        0.47235    0.94595    0.84911    1.000
    N2831    N        0.45172    0.89158    0.80999    1.000
    N2832    N        0.33963    0.92801    0.93729    1.000
    N2833    N        0.28478    0.93381    0.99068    1.000
    Si2834   Si       0.27318    0.89359    0.97530    1.000
    Si2835   Si       0.39359    0.91581    0.90021    1.000
    Si2836   Si       0.37052    0.92934    0.97152    1.000
    N2837    N        0.42907    0.90636    0.87704    1.000
    Si2838   Si       0.44524    0.94532    0.94087    1.000
    N2839    N        0.36843    0.94383    0.87976    1.000
    Si2840   Si       0.48019    0.94154    0.89168    1.000
    N2841    N        0.47054    0.91236    0.92705    1.000
    N2842    N        0.40382    0.93240    0.93936    1.000
    N2843    N        0.29065    0.96754    0.04657    1.000
    N2844    N        0.27370    0.99012    0.11185    1.000
    Si2845   Si       0.29084    0.95894    0.08895    1.000
    Si2846   Si       0.31873    0.95028    0.01607    1.000
    N2847    N        0.24899    0.98483    0.00062    1.000
    Si2848   Si       0.25713    0.95029    0.02295    1.000
    N2849    N        0.37113    0.97540    0.05509    1.000
    N2850    N        0.47650    0.98731    0.03894    1.000
    Si2851   Si       0.38793    0.97102    0.01578    1.000
    N2852    N        0.41538    0.00334    0.00944    1.000
    Si2853   Si       0.45849    0.99111    0.00039    1.000
    Si2854   Si       0.48287    0.95189    0.06376    1.000
    Si2855   Si       0.34813    0.97297    0.12656    1.000
    Si2856   Si       0.26070    0.97399    0.20439    1.000
    N2857    N        0.34399    0.96951    0.16873    1.000
    N2858    N        0.29377    0.00025    0.21994    1.000
    N2859    N        0.25501    0.95647    0.16430    1.000
    Si2860   Si       0.33046    0.99284    0.24391    1.000
    N2861    N        0.39195    0.96366    0.12671    1.000
    Si2862   Si       0.40891    0.00303    0.12952    1.000
    N2863    N        0.45254    0.00591    0.13612    1.000
    N2864    N        0.46220    0.95733    0.20221    1.000
    Si2865   Si       0.46155    0.99748    0.22068    1.000
    N2866    N        0.42925    0.00919    0.24772    1.000
    N2867    N        0.33459    0.98907    0.34521    1.000
    Si2868   Si       0.25715    0.99141    0.31108    1.000
    Si2869   Si       0.35684    0.99832    0.30926    1.000
    N2870    N        0.24521    0.98175    0.35278    1.000
    N2871    N        0.27518    0.95411    0.29730    1.000
    N2872    N        0.33213    0.95115    0.25164    1.000
    Si2873   Si       0.47441    0.96948    0.32683    1.000
    N2874    N        0.38168    0.97384    0.28223    1.000
    N2875    N        0.43398    0.98258    0.32218    1.000
    Si2876   Si       0.42312    0.98015    0.28104    1.000
    Si2877   Si       0.27258    0.97205    0.38536    1.000
    N2878    N        0.24891    0.95352    0.41623    1.000
    N2879    N        0.41315    0.96804    0.43729    1.000
    Si2880   Si       0.39153    0.98173    0.40122    1.000
    N2881    N        0.42201    0.00892    0.38641    1.000
    N2882    N        0.48181    0.99592    0.42608    1.000
    Si2883   Si       0.40279    0.99471    0.47221    1.000
    Si2884   Si       0.48334    0.95960    0.40363    1.000
    N2885    N        0.33645    0.95803    0.50936    1.000
    N2886    N        0.26229    0.95613    0.55704    1.000
    Si2887   Si       0.27662    0.99984    0.55694    1.000
    Si2888   Si       0.24442    0.95858    0.51477    1.000
    Si2889   Si       0.33179    0.00290    0.50429    1.000
    N2890    N        0.36242    0.97380    0.57758    1.000
    Si2891   Si       0.40638    0.97670    0.59522    1.000
    Si2892   Si       0.44198    0.97090    0.53382    1.000
    N2893    N        0.40462    0.97282    0.51090    1.000
    Si2894   Si       0.37233    0.95762    0.53560    1.000
    N2895    N        0.46653    0.95376    0.50306    1.000
    N2896    N        0.46569    0.00448    0.54630    1.000
    N2897    N        0.42961    0.95220    0.56949    1.000
    Si2898   Si       0.28817    0.96137    0.73329    1.000
    N2899    N        0.28236    0.97973    0.69263    1.000
    Si2900   Si       0.32080    0.99744    0.67924    1.000
    N2901    N        0.34539    0.96842    0.65765    1.000
    N2902    N        0.34123    0.00633    0.71568    1.000
    Si2903   Si       0.36156    0.97247    0.72969    1.000
    Si2904   Si       0.24893    0.00397    0.67994    1.000
    Si2905   Si       0.38918    0.98004    0.66347    1.000
    N2906    N        0.39357    0.96282    0.70325    1.000
    N2907    N        0.48395    0.96311    0.65523    1.000
    N2908    N        0.47957    0.00392    0.72257    1.000
    N2909    N        0.41675    0.96338    0.63482    1.000
    Si2910   Si       0.30563    0.97730    0.84556    1.000
    N2911    N        0.34470    0.97469    0.82325    1.000
    N2912    N        0.28697    0.99305    0.76376    1.000
    N2913    N        0.28180    0.00998    0.82975    1.000
    Si2914   Si       0.36414    0.00461    0.79784    1.000
    Si2915   Si       0.48576    0.97866    0.82484    1.000
    N2916    N        0.38222    0.97909    0.76694    1.000
    N2917    N        0.45830    0.98130    0.79019    1.000
    Si2918   Si       0.41937    0.96299    0.78097    1.000
    N2919    N        0.23910    0.95570    0.93351    1.000
    N2920    N        0.24935    0.00456    0.88932    1.000
    Si2921   Si       0.26763    0.96579    0.96365    1.000
    N2922    N        0.29594    0.99385    0.94840    1.000
    N2923    N        0.35017    0.96707    0.99003    1.000
    N2924    N        0.31534    0.98817    0.88699    1.000
    Si2925   Si       0.34505    0.96578    0.90987    1.000
    Si2926   Si       0.33599    0.00667    0.96919    1.000
    N2927    N        0.36132    0.99963    0.93213    1.000
    N2928    N        0.45844    0.97261    0.90920    1.000
    N2929    N        0.45699    0.95349    0.98041    1.000
    N2930    N        0.59565    0.04371    0.06605    1.000
    N2931    N        0.53141    0.02966    0.03547    1.000
    Si2932   Si       0.49882    0.01907    0.06066    1.000
    Si2933   Si       0.55876    0.06068    0.05167    1.000
    Si2934   Si       0.59642    0.00869    0.09219    1.000
    Si2935   Si       0.54328    0.05286    0.12232    1.000
    Si2936   Si       0.71604    0.01467    0.01959    1.000
    Si2937   Si       0.67006    0.02509    0.09946    1.000
    N2938    N        0.67128    0.05660    0.06676    1.000
    N2939    N        0.70061    0.05595    0.00709    1.000
    N2940    N        0.74153    0.02451    0.05328    1.000
    Si2941   Si       0.63008    0.06696    0.05321    1.000
    N2942    N        0.62855    0.06617    0.01093    1.000
    N2943    N        0.56789    0.01765    0.12542    1.000
    N2944    N        0.50514    0.03532    0.13496    1.000
    Si2945   Si       0.50958    0.03840    0.21489    1.000
    N2946    N        0.54730    0.02826    0.19531    1.000
    Si2947   Si       0.57772    0.05592    0.18816    1.000
    N2948    N        0.61412    0.03073    0.18256    1.000
    N2949    N        0.65821    0.05519    0.12959    1.000
    Si2950   Si       0.65313    0.04658    0.17356    1.000
    N2951    N        0.68221    0.01566    0.18202    1.000
    Si2952   Si       0.57104    0.04487    0.30920    1.000
    N2953    N        0.54234    0.04534    0.27615    1.000
    N2954    N        0.60335    0.01866    0.29084    1.000
    N2955    N        0.72075    0.04174    0.26116    1.000
    N2956    N        0.69551    0.04279    0.35475    1.000
    Si2957   Si       0.63827    0.01138    0.26608    1.000
    N2958    N        0.64802    0.05037    0.24922    1.000
    N2959    N        0.50022    0.03762    0.36718    1.000
    N2960    N        0.51260    0.05244    0.44079    1.000
    N2961    N        0.60743    0.05012    0.38701    1.000
    Si2962   Si       0.58867    0.01862    0.40856    1.000
    N2963    N        0.58596    0.03960    0.44626    1.000
    Si2964   Si       0.49765    0.06393    0.40234    1.000
    Si2965   Si       0.52226    0.01074    0.43715    1.000
    Si2966   Si       0.73508    0.03606    0.37055    1.000
    N2967    N        0.72960    0.00683    0.40332    1.000
    N2968    N        0.66861    0.04469    0.42291    1.000
    Si2969   Si       0.65186    0.04410    0.38296    1.000
    Si2970   Si       0.73653    0.02656    0.44407    1.000
    Si2971   Si       0.66541    0.00778    0.44703    1.000
    N2972    N        0.52468    0.04521    0.54961    1.000
    N2973    N        0.58543    0.02486    0.52308    1.000
    Si2974   Si       0.55436    0.02724    0.61329    1.000
    Si2975   Si       0.56157    0.06060    0.53198    1.000
    N2976    N        0.59466    0.01551    0.59883    1.000
    Si2977   Si       0.72568    0.01737    0.56434    1.000
    Si2978   Si       0.62541    0.03837    0.51460    1.000
    N2979    N        0.64402    0.03824    0.55443    1.000
    N2980    N        0.71210    0.05579    0.57258    1.000
    N2981    N        0.50474    0.03926    0.66991    1.000
    N2982    N        0.56960    0.04870    0.71374    1.000
    Si2983   Si       0.54248    0.02695    0.68622    1.000
    N2984    N        0.57299    0.03156    0.65471    1.000
    Si2985   Si       0.61375    0.01342    0.64017    1.000
    Si2986   Si       0.71374    0.00776    0.69520    1.000
    N2987    N        0.69428    0.04304    0.67897    1.000
    Si2988   Si       0.65135    0.02909    0.70634    1.000
    N2989    N        0.66320    0.06349    0.73212    1.000
    N2990    N        0.63172    0.04322    0.67006    1.000
    N2991    N        0.73182    0.03112    0.72678    1.000
    N2992    N        0.62141    0.00948    0.73410    1.000
    N2993    N        0.57176    0.03932    0.82862    1.000
    N2994    N        0.50151    0.03595    0.79528    1.000
    Si2995   Si       0.53998    0.01930    0.80727    1.000
    N2996    N        0.60336    0.06157    0.77264    1.000
    Si2997   Si       0.58661    0.02915    0.74736    1.000
    Si2998   Si       0.70736    0.04528    0.82750    1.000
    N2999    N        0.67109    0.02261    0.83384    1.000
    Si3000   Si       0.64694    0.04500    0.86141    1.000
    N3001    N        0.73504    0.04337    0.86239    1.000
    N3002    N        0.73392    0.02023    0.80200    1.000
    Si3003   Si       0.57724    0.04960    0.87089    1.000
    Si3004   Si       0.51830    0.05437    0.89948    1.000
    N3005    N        0.55095    0.02597    0.89825    1.000
    N3006    N        0.56887    0.04031    0.98482    1.000
    Si3007   Si       0.52815    0.02110    0.99272    1.000
    N3008    N        0.61352    0.02776    0.88624    1.000
    Si3009   Si       0.66065    0.05335    0.98789    1.000
    N3010    N        0.65955    0.01699    0.96372    1.000
    N3011    N        0.67048    0.04905    0.89963    1.000
    Si3012   Si       0.71649    0.04729    0.90119    1.000
    Si3013   Si       0.64434    0.01611    0.92116    1.000
    N3014    N        0.56995    0.09426    0.02787    1.000
    Si3015   Si       0.51259    0.11328    0.08666    1.000
    N3016    N        0.53544    0.07557    0.08543    1.000
    N3017    N        0.62924    0.10011    0.08063    1.000
    N3018    N        0.70949    0.10456    0.08567    1.000
    Si3019   Si       0.66784    0.09035    0.10098    1.000
    N3020    N        0.68961    0.11596    0.02291    1.000
    Si3021   Si       0.70334    0.08111    0.04630    1.000
    N3022    N        0.58630    0.08561    0.21873    1.000
    N3023    N        0.56186    0.07914    0.15423    1.000
    Si3024   Si       0.53289    0.11193    0.15638    1.000
    N3025    N        0.50851    0.07840    0.23078    1.000
    Si3026   Si       0.49692    0.10871    0.20406    1.000
    Si3027   Si       0.56409    0.12174    0.22864    1.000
    N3028    N        0.49166    0.09864    0.16220    1.000
    N3029    N        0.69949    0.10276    0.23031    1.000
    N3030    N        0.71635    0.09878    0.16624    1.000
    N3031    N        0.64913    0.08465    0.19295    1.000
    Si3032   Si       0.71526    0.12556    0.12952    1.000
    Si3033   Si       0.68252    0.11259    0.19030    1.000
    Si3034   Si       0.62975    0.08550    0.23127    1.000
    Si3035   Si       0.52473    0.08381    0.27075    1.000
    Si3036   Si       0.53497    0.09629    0.34183    1.000
    N3037    N        0.50857    0.08091    0.31183    1.000
    N3038    N        0.57455    0.08028    0.33354    1.000
    Si3039   Si       0.60786    0.08598    0.36014    1.000
    N3040    N        0.54372    0.12244    0.26836    1.000
    N3041    N        0.68274    0.08845    0.29692    1.000
    Si3042   Si       0.68943    0.08307    0.33967    1.000
    N3043    N        0.72824    0.10305    0.34274    1.000
    N3044    N        0.65050    0.08458    0.35785    1.000
    N3045    N        0.63356    0.11741    0.26120    1.000
    Si3046   Si       0.68634    0.07033    0.25805    1.000
    N3047    N        0.58571    0.11512    0.44346    1.000
    N3048    N        0.51955    0.09656    0.38530    1.000
    Si3049   Si       0.58572    0.07707    0.46662    1.000
    Si3050   Si       0.51175    0.07961    0.47379    1.000
    N3051    N        0.50651    0.12031    0.46297    1.000
    N3052    N        0.55065    0.07895    0.49322    1.000
    Si3053   Si       0.68826    0.08098    0.44154    1.000
    N3054    N        0.70236    0.10908    0.41057    1.000
    N3055    N        0.67547    0.10863    0.47383    1.000
    Si3056   Si       0.73117    0.12711    0.38023    1.000
    N3057    N        0.72613    0.06692    0.45643    1.000
    N3058    N        0.57403    0.09331    0.55737    1.000
    Si3059   Si       0.54360    0.10070    0.58743    1.000
    N3060    N        0.50919    0.11120    0.56243    1.000
    Si3061   Si       0.49274    0.07413    0.54510    1.000
    N3062    N        0.53759    0.06739    0.61333    1.000
    N3063    N        0.72934    0.12080    0.56134    1.000
    Si3064   Si       0.64388    0.11011    0.50612    1.000
    N3065    N        0.66457    0.10316    0.54517    1.000
    N3066    N        0.66178    0.08295    0.61497    1.000
    Si3067   Si       0.66957    0.07004    0.57370    1.000
    N3068    N        0.61777    0.07572    0.49627    1.000
    N3069    N        0.53930    0.09835    0.67450    1.000
    N3070    N        0.60058    0.09956    0.64972    1.000
    Si3071   Si       0.51782    0.10473    0.71202    1.000
    Si3072   Si       0.51421    0.07487    0.64733    1.000
    N3073    N        0.54265    0.11838    0.74522    1.000
    N3074    N        0.49973    0.06762    0.72918    1.000
    Si3075   Si       0.59231    0.06650    0.67740    1.000
    N3076    N        0.61041    0.10344    0.71575    1.000
    Si3077   Si       0.63437    0.11759    0.62658    1.000
    N3078    N        0.73332    0.09968    0.64421    1.000
    Si3079   Si       0.71297    0.11782    0.67787    1.000
    N3080    N        0.67025    0.10545    0.67360    1.000
    N3081    N        0.72446    0.10182    0.71740    1.000
    Si3082   Si       0.66754    0.06684    0.65574    1.000
    Si3083   Si       0.70468    0.06443    0.71822    1.000
    N3084    N        0.56676    0.10786    0.81565    1.000
    Si3085   Si       0.59169    0.07292    0.81146    1.000
    N3086    N        0.50641    0.07500    0.86213    1.000
    N3087    N        0.49243    0.10406    0.79409    1.000
    Si3088   Si       0.53348    0.12071    0.78715    1.000
    Si3089   Si       0.56620    0.12227    0.85639    1.000
    Si3090   Si       0.48700    0.07080    0.77017    1.000
    N3091    N        0.64341    0.11613    0.77992    1.000
    Si3092   Si       0.65666    0.10301    0.81948    1.000
    N3093    N        0.69725    0.08826    0.81967    1.000
    Si3094   Si       0.72804    0.11882    0.81365    1.000
    N3095    N        0.62580    0.07535    0.83865    1.000
    Si3096   Si       0.63055    0.08499    0.75069    1.000
    Si3097   Si       0.50145    0.11627    0.87218    1.000
    N3098    N        0.59559    0.10025    0.95582    1.000
    Si3099   Si       0.56446    0.10358    0.92528    1.000
    N3100    N        0.57244    0.09056    0.88547    1.000
    N3101    N        0.52604    0.08368    0.93216    1.000
    Si3102   Si       0.59026    0.07739    0.99231    1.000
    Si3103   Si       0.49528    0.11221    0.94722    1.000
    Si3104   Si       0.70019    0.09586    0.98523    1.000
    N3105    N        0.71520    0.09097    0.90525    1.000
    Si3106   Si       0.63415    0.12031    0.95331    1.000
    Si3107   Si       0.67370    0.09233    0.91664    1.000
    N3108    N        0.66683    0.08862    0.95903    1.000
    N3109    N        0.73946    0.10442    0.97011    1.000
    N3110    N        0.58188    0.15344    0.06987    1.000
    Si3111   Si       0.56565    0.15976    0.11153    1.000
    Si3112   Si       0.55849    0.13565    0.03678    1.000
    N3113    N        0.51666    0.13806    0.05132    1.000
    N3114    N        0.57052    0.15741    0.00308    1.000
    N3115    N        0.53381    0.13344    0.11838    1.000
    Si3116   Si       0.62166    0.14129    0.08504    1.000
    N3117    N        0.65354    0.15975    0.06249    1.000
    Si3118   Si       0.66591    0.15178    0.02132    1.000
    N3119    N        0.60706    0.15184    0.12662    1.000
    N3120    N        0.58856    0.15911    0.23031    1.000
    Si3121   Si       0.52512    0.17726    0.19562    1.000
    N3122    N        0.53538    0.13294    0.19576    1.000
    N3123    N        0.49591    0.18491    0.16562    1.000
    Si3124   Si       0.64424    0.15593    0.14919    1.000
    Si3125   Si       0.73339    0.17707    0.19310    1.000
    N3126    N        0.72571    0.16602    0.15227    1.000
    N3127    N        0.65601    0.14949    0.19006    1.000
    N3128    N        0.67067    0.12562    0.12935    1.000
    Si3129   Si       0.65996    0.18416    0.21407    1.000
    N3130    N        0.59114    0.15649    0.30429    1.000
    N3131    N        0.52997    0.14130    0.34137    1.000
    Si3132   Si       0.54792    0.15271    0.30222    1.000
    Si3133   Si       0.61175    0.15402    0.26565    1.000
    Si3134   Si       0.61757    0.15684    0.33932    1.000
    N3135    N        0.65455    0.15584    0.31527    1.000
    N3136    N        0.70918    0.15201    0.27323    1.000
    N3137    N        0.64736    0.17886    0.25658    1.000
    Si3138   Si       0.67202    0.12846    0.28394    1.000
    Si3139   Si       0.73202    0.12664    0.24656    1.000
    N3140    N        0.60187    0.12830    0.37036    1.000
    Si3141   Si       0.51193    0.13957    0.38274    1.000
    N3142    N        0.53794    0.15455    0.41433    1.000
    N3143    N        0.54664    0.15832    0.48830    1.000
    Si3144   Si       0.54667    0.13370    0.45126    1.000
    Si3145   Si       0.50282    0.15641    0.48809    1.000
    Si3146   Si       0.59983    0.14390    0.41280    1.000
    N3147    N        0.64382    0.15238    0.41676    1.000
    Si3148   Si       0.68600    0.14881    0.41596    1.000
    Si3149   Si       0.70339    0.14054    0.48357    1.000
    N3150    N        0.70039    0.16881    0.45049    1.000
    N3151    N        0.71075    0.16391    0.38511    1.000
    Si3152   Si       0.53967    0.17043    0.59225    1.000
    Si3153   Si       0.57962    0.16869    0.51587    1.000
    N3154    N        0.56783    0.16478    0.55770    1.000
    N3155    N        0.49919    0.17564    0.57711    1.000
    N3156    N        0.54931    0.13437    0.61537    1.000
    Si3157   Si       0.59943    0.12843    0.55773    1.000
    N3158    N        0.61150    0.13776    0.51729    1.000
    N3159    N        0.62011    0.14046    0.59300    1.000
    N3160    N        0.68711    0.16015    0.51801    1.000
    N3161    N        0.68109    0.16881    0.58402    1.000
    Si3162   Si       0.69039    0.13708    0.55556    1.000
    Si3163   Si       0.63909    0.17940    0.58782    1.000
    N3164    N        0.57302    0.15129    0.69030    1.000
    Si3165   Si       0.57951    0.13047    0.72835    1.000
    Si3166   Si       0.56606    0.12555    0.65485    1.000
    N3167    N        0.63514    0.15238    0.65412    1.000
    N3168    N        0.71823    0.15860    0.68807    1.000
    Si3169   Si       0.63632    0.12747    0.69106    1.000
    N3170    N        0.65304    0.15751    0.71952    1.000
    N3171    N        0.53468    0.16389    0.79462    1.000
    Si3172   Si       0.50954    0.17301    0.82882    1.000
    N3173    N        0.53042    0.14692    0.86256    1.000
    N3174    N        0.59530    0.15901    0.75627    1.000
    N3175    N        0.59099    0.15553    0.87397    1.000
    N3176    N        0.71294    0.15830    0.79875    1.000
    Si3177   Si       0.63662    0.15570    0.76162    1.000
    N3178    N        0.65669    0.13991    0.84409    1.000
    Si3179   Si       0.67907    0.17123    0.82310    1.000
    Si3180   Si       0.60656    0.17844    0.99035    1.000
    Si3181   Si       0.54237    0.15978    0.96839    1.000
    Si3182   Si       0.55388    0.17017    0.89259    1.000
    N3183    N        0.50703    0.13637    0.98083    1.000
    N3184    N        0.55240    0.14670    0.93055    1.000
    N3185    N        0.63894    0.14898    0.98693    1.000
    Si3186   Si       0.63443    0.15298    0.87941    1.000
    N3187    N        0.64781    0.12677    0.91153    1.000
    N3188    N        0.52430    0.23240    0.03815    1.000
    Si3189   Si       0.50351    0.21707    0.00324    1.000
    N3190    N        0.54582    0.19780    0.11957    1.000
    N3191    N        0.64901    0.22762    0.07169    1.000
    Si3192   Si       0.67708    0.19573    0.06104    1.000
    Si3193   Si       0.73098    0.20118    0.00456    1.000
    N3194    N        0.62564    0.21201    0.01274    1.000
    Si3195   Si       0.64181    0.22733    0.11460    1.000
    N3196    N        0.68899    0.19067    0.01721    1.000
    N3197    N        0.70876    0.18922    0.08980    1.000
    N3198    N        0.56144    0.20008    0.18487    1.000
    Si3199   Si       0.59270    0.19824    0.21590    1.000
    Si3200   Si       0.56349    0.22575    0.14877    1.000
    N3201    N        0.51183    0.19655    0.23236    1.000
    N3202    N        0.59961    0.23820    0.12935    1.000
    Si3203   Si       0.50795    0.21348    0.13463    1.000
    N3204    N        0.71682    0.23465    0.14705    1.000
    Si3205   Si       0.70332    0.19545    0.13097    1.000
    N3206    N        0.63106    0.21491    0.20059    1.000
    N3207    N        0.66060    0.19619    0.13602    1.000
    N3208    N        0.70201    0.19388    0.21581    1.000
    Si3209   Si       0.53807    0.21556    0.26265    1.000
    Si3210   Si       0.51981    0.21349    0.33949    1.000
    N3211    N        0.53399    0.19343    0.29984    1.000
    N3212    N        0.57913    0.22185    0.25022    1.000
    N3213    N        0.62267    0.19450    0.36336    1.000
    Si3214   Si       0.64133    0.22887    0.34457    1.000
    N3215    N        0.68412    0.21643    0.34106    1.000
    N3216    N        0.69410    0.22026    0.27823    1.000
    N3217    N        0.62827    0.22315    0.30285    1.000
    Si3218   Si       0.66158    0.19616    0.29496    1.000
    Si3219   Si       0.71267    0.23632    0.31483    1.000
    Si3220   Si       0.71705    0.19219    0.25756    1.000
    N3221    N        0.53548    0.21481    0.37983    1.000
    Si3222   Si       0.58681    0.21870    0.46148    1.000
    N3223    N        0.54566    0.22319    0.45109    1.000
    Si3224   Si       0.55132    0.19705    0.41508    1.000
    Si3225   Si       0.50913    0.23402    0.47030    1.000
    N3226    N        0.49149    0.19865    0.48764    1.000
    N3227    N        0.59345    0.19234    0.42646    1.000
    N3228    N        0.73413    0.23219    0.37793    1.000
    N3229    N        0.72528    0.23521    0.44455    1.000
    Si3230   Si       0.70104    0.20523    0.37921    1.000
    Si3231   Si       0.69080    0.21011    0.44771    1.000
    Si3232   Si       0.63195    0.19431    0.40632    1.000
    N3233    N        0.66846    0.21968    0.48277    1.000
    N3234    N        0.66918    0.21487    0.40837    1.000
    N3235    N        0.54242    0.20741    0.61453    1.000
    N3236    N        0.58889    0.20974    0.50288    1.000
    Si3237   Si       0.60831    0.23179    0.53660    1.000
    N3238    N        0.51166    0.24166    0.56289    1.000
    N3239    N        0.58837    0.23964    0.57479    1.000
    Si3240   Si       0.70594    0.20414    0.58370    1.000
    Si3241   Si       0.66985    0.19983    0.52240    1.000
    N3242    N        0.69977    0.22288    0.54388    1.000
    N3243    N        0.63622    0.19990    0.54863    1.000
    N3244    N        0.69925    0.23350    0.61440    1.000
    N3245    N        0.62943    0.20871    0.61793    1.000
    Si3246   Si       0.56142    0.19275    0.69607    1.000
    N3247    N        0.55166    0.20810    0.73565    1.000
    N3248    N        0.59817    0.21232    0.68064    1.000
    Si3249   Si       0.51682    0.22109    0.64846    1.000
    N3250    N        0.51702    0.19053    0.67868    1.000
    Si3251   Si       0.51284    0.22446    0.74459    1.000
    Si3252   Si       0.63544    0.19565    0.66082    1.000
    N3253    N        0.67473    0.20790    0.67542    1.000
    Si3254   Si       0.71199    0.21969    0.65384    1.000
    N3255    N        0.70507    0.20684    0.73945    1.000
    Si3256   Si       0.68610    0.18158    0.70865    1.000
    N3257    N        0.58374    0.21867    0.79778    1.000
    N3258    N        0.52431    0.21230    0.84452    1.000
    Si3259   Si       0.54859    0.23739    0.81655    1.000
    Si3260   Si       0.56559    0.18722    0.77293    1.000
    N3261    N        0.51394    0.23902    0.78622    1.000
    Si3262   Si       0.62751    0.22332    0.79576    1.000
    N3263    N        0.69832    0.19557    0.85500    1.000
    Si3264   Si       0.66365    0.21965    0.86717    1.000
    N3265    N        0.64979    0.18501    0.78999    1.000
    Si3266   Si       0.72982    0.18520    0.76876    1.000
    N3267    N        0.59645    0.19661    0.95393    1.000
    Si3268   Si       0.51181    0.22557    0.88395    1.000
    N3269    N        0.52874    0.20104    0.97327    1.000
    N3270    N        0.54604    0.21039    0.90656    1.000
    Si3271   Si       0.55999    0.21982    0.94639    1.000
    N3272    N        0.66597    0.21486    0.94957    1.000
    Si3273   Si       0.73319    0.19697    0.88079    1.000
    N3274    N        0.72435    0.22964    0.97113    1.000
    Si3275   Si       0.62781    0.21312    0.92801    1.000
    Si3276   Si       0.66629    0.21835    0.99317    1.000
    N3277    N        0.73683    0.23849    0.89691    1.000
    N3278    N        0.63821    0.19445    0.89128    1.000
    Si3279   Si       0.70462    0.22165    0.93277    1.000
    N3280    N        0.72586    0.18307    0.92240    1.000
    N3281    N        0.53152    0.27521    0.08209    1.000
    Si3282   Si       0.54619    0.27006    0.04252    1.000
    N3283    N        0.58698    0.26277    0.04089    1.000
    Si3284   Si       0.49760    0.24623    0.07111    1.000
    N3285    N        0.53344    0.30111    0.01351    1.000
    N3286    N        0.69801    0.29849    0.07692    1.000
    Si3287   Si       0.63116    0.24848    0.03783    1.000
    N3288    N        0.67048    0.25856    0.00924    1.000
    Si3289   Si       0.68924    0.29141    0.03350    1.000
    N3290    N        0.64042    0.29197    0.05474    1.000
    N3291    N        0.73227    0.28362    0.02074    1.000
    Si3292   Si       0.73327    0.29713    0.10108    1.000
    Si3293   Si       0.65824    0.29751    0.09471    1.000
    Si3294   Si       0.53888    0.29094    0.12053    1.000
    Si3295   Si       0.49663    0.27296    0.23953    1.000
    N3296    N        0.53063    0.25231    0.14726    1.000
    N3297    N        0.50196    0.29539    0.20372    1.000
    Si3298   Si       0.49873    0.27775    0.16475    1.000
    Si3299   Si       0.61132    0.27996    0.14270    1.000
    N3300    N        0.61379    0.28666    0.18481    1.000
    N3301    N        0.71924    0.29899    0.14221    1.000
    Si3302   Si       0.64030    0.25703    0.20585    1.000
    Si3303   Si       0.69067    0.26886    0.15126    1.000
    Si3304   Si       0.71096    0.29320    0.21042    1.000
    N3305    N        0.65363    0.26911    0.12725    1.000
    N3306    N        0.67893    0.27078    0.19249    1.000
    Si3307   Si       0.54328    0.27670    0.30128    1.000
    N3308    N        0.58564    0.27799    0.29460    1.000
    N3309    N        0.52798    0.25625    0.33653    1.000
    N3310    N        0.52376    0.25587    0.26890    1.000
    Si3311   Si       0.60588    0.24688    0.27212    1.000
    Si3312   Si       0.61299    0.29409    0.37087    1.000
    N3313    N        0.70800    0.28020    0.31790    1.000
    N3314    N        0.64192    0.27155    0.34913    1.000
    Si3315   Si       0.67046    0.29875    0.32898    1.000
    N3316    N        0.70211    0.30001    0.25378    1.000
    N3317    N        0.63638    0.26666    0.24823    1.000
    N3318    N        0.51677    0.28120    0.40516    1.000
    Si3319   Si       0.54177    0.25902    0.37752    1.000
    Si3320   Si       0.59787    0.28230    0.42632    1.000
    N3321    N        0.58238    0.26391    0.38861    1.000
    N3322    N        0.61279    0.25355    0.45649    1.000
    N3323    N        0.50550    0.26648    0.49711    1.000
    N3324    N        0.67351    0.28970    0.46578    1.000
    Si3325   Si       0.73558    0.26142    0.41170    1.000
    Si3326   Si       0.71136    0.29768    0.48843    1.000
    N3327    N        0.70217    0.28848    0.40334    1.000
    Si3328   Si       0.64737    0.25894    0.48045    1.000
    N3329    N        0.54070    0.28472    0.60455    1.000
    Si3330   Si       0.52246    0.27427    0.53729    1.000
    N3331    N        0.56390    0.28500    0.53441    1.000
    Si3332   Si       0.54751    0.24326    0.58922    1.000
    N3333    N        0.71953    0.29514    0.59236    1.000
    Si3334   Si       0.68674    0.27356    0.61118    1.000
    N3335    N        0.63395    0.26214    0.52073    1.000
    N3336    N        0.65067    0.27579    0.58548    1.000
    Si3337   Si       0.65466    0.29274    0.54609    1.000
    Si3338   Si       0.61875    0.24957    0.60301    1.000
    Si3339   Si       0.73331    0.28882    0.55131    1.000
    N3340    N        0.69611    0.29646    0.53001    1.000
    N3341    N        0.49008    0.29896    0.66350    1.000
    Si3342   Si       0.51827    0.27980    0.69183    1.000
    N3343    N        0.49546    0.25861    0.71945    1.000
    N3344    N        0.59828    0.27575    0.70876    1.000
    Si3345   Si       0.58394    0.25402    0.67350    1.000
    N3346    N        0.59942    0.27262    0.63470    1.000
    N3347    N        0.54101    0.24975    0.66912    1.000
    Si3348   Si       0.69506    0.28320    0.68428    1.000
    N3349    N        0.67081    0.27236    0.71622    1.000
    N3350    N        0.67866    0.29680    0.64583    1.000
    N3351    N        0.72690    0.25349    0.67526    1.000
    Si3352   Si       0.63369    0.27319    0.73501    1.000
    N3353    N        0.55612    0.27118    0.84044    1.000
    Si3354   Si       0.58776    0.29550    0.85409    1.000
    Si3355   Si       0.52326    0.30298    0.86234    1.000
    Si3356   Si       0.67389    0.26650    0.80920    1.000
    N3357    N        0.70865    0.27566    0.77642    1.000
    N3358    N        0.70919    0.26776    0.83560    1.000
    N3359    N        0.65065    0.24954    0.77035    1.000
    Si3360   Si       0.69076    0.24761    0.74875    1.000
    N3361    N        0.64818    0.23479    0.83254    1.000
    N3362    N        0.50329    0.26798    0.88707    1.000
    N3363    N        0.56081    0.26078    0.95921    1.000
    Si3364   Si       0.52784    0.28086    0.97488    1.000
    Si3365   Si       0.59821    0.28567    0.95387    1.000
    N3366    N        0.61813    0.29312    0.99255    1.000
    N3367    N        0.61541    0.25437    0.92854    1.000
    Si3368   Si       0.73308    0.27240    0.97790    1.000
    Si3369   Si       0.71079    0.27368    0.88031    1.000
    Si3370   Si       0.64709    0.27877    0.91026    1.000
    N3371    N        0.67617    0.25078    0.89822    1.000
    N3372    N        0.62783    0.29323    0.86990    1.000
    Si3373   Si       0.65987    0.29300    0.98090    1.000
    N3374    N        0.70041    0.29077    0.95749    1.000
    N3375    N        0.58240    0.33789    0.04123    1.000
    Si3376   Si       0.54310    0.34293    0.02342    1.000
    Si3377   Si       0.60541    0.30308    0.03291    1.000
    N3378    N        0.63663    0.33241    0.11019    1.000
    N3379    N        0.67498    0.32470    0.00881    1.000
    Si3380   Si       0.59998    0.34333    0.13018    1.000
    N3381    N        0.50614    0.31250    0.13794    1.000
    N3382    N        0.60550    0.35435    0.17425    1.000
    N3383    N        0.57769    0.32043    0.23200    1.000
    Si3384   Si       0.61267    0.32459    0.20513    1.000
    N3385    N        0.57832    0.30542    0.13052    1.000
    N3386    N        0.65086    0.33182    0.22434    1.000
    N3387    N        0.72113    0.33372    0.19905    1.000
    Si3388   Si       0.73109    0.34326    0.14462    1.000
    Si3389   Si       0.68496    0.35781    0.21512    1.000
    N3390    N        0.53169    0.31861    0.30887    1.000
    N3391    N        0.59204    0.32168    0.34706    1.000
    Si3392   Si       0.56087    0.34598    0.32858    1.000
    Si3393   Si       0.60636    0.31385    0.30632    1.000
    Si3394   Si       0.49780    0.33165    0.28756    1.000
    Si3395   Si       0.56040    0.35239    0.25410    1.000
    N3396    N        0.58790    0.35351    0.29304    1.000
    N3397    N        0.51613    0.35184    0.25167    1.000
    Si3398   Si       0.72992    0.30326    0.28775    1.000
    N3399    N        0.67887    0.32917    0.35774    1.000
    N3400    N        0.64680    0.31439    0.29627    1.000
    Si3401   Si       0.65840    0.30382    0.25682    1.000
    N3402    N        0.73674    0.34552    0.29898    1.000
    N3403    N        0.50741    0.32514    0.46647    1.000
    Si3404   Si       0.52892    0.31916    0.42693    1.000
    N3405    N        0.57268    0.31578    0.43299    1.000
    Si3406   Si       0.60118    0.34911    0.43556    1.000
    N3407    N        0.51911    0.35872    0.40710    1.000
    N3408    N        0.63215    0.30375    0.40819    1.000
    Si3409   Si       0.67152    0.31346    0.42909    1.000
    N3410    N        0.64401    0.35191    0.44702    1.000
    Si3411   Si       0.63145    0.35427    0.49168    1.000
    Si3412   Si       0.71120    0.32766    0.38542    1.000
    N3413    N        0.72598    0.33857    0.48284    1.000
    N3414    N        0.70192    0.34821    0.42158    1.000
    N3415    N        0.59509    0.32721    0.58624    1.000
    Si3416   Si       0.58920    0.31907    0.54222    1.000
    N3417    N        0.56077    0.35117    0.53445    1.000
    N3418    N        0.49617    0.30900    0.54185    1.000
    Si3419   Si       0.57687    0.30583    0.61847    1.000
    N3420    N        0.62899    0.32732    0.52602    1.000
    Si3421   Si       0.73440    0.35395    0.52423    1.000
    Si3422   Si       0.61773    0.36104    0.60049    1.000
    N3423    N        0.66123    0.35931    0.60698    1.000
    Si3424   Si       0.51328    0.31112    0.62941    1.000
    Si3425   Si       0.54916    0.35039    0.68657    1.000
    N3426    N        0.53934    0.31123    0.70968    1.000
    N3427    N        0.55096    0.32606    0.64940    1.000
    Si3428   Si       0.58318    0.31640    0.73108    1.000
    N3429    N        0.59047    0.35043    0.70354    1.000
    Si3430   Si       0.52280    0.33205    0.74342    1.000
    Si3431   Si       0.69414    0.35092    0.71090    1.000
    N3432    N        0.66046    0.35264    0.68272    1.000
    Si3433   Si       0.67578    0.34100    0.64378    1.000
    N3434    N        0.71892    0.34898    0.63704    1.000
    N3435    N        0.72152    0.31892    0.69770    1.000
    N3436    N        0.51799    0.32412    0.82173    1.000
    N3437    N        0.55891    0.32865    0.76621    1.000
    N3438    N        0.59492    0.32293    0.82102    1.000
    Si3439   Si       0.55754    0.33990    0.80907    1.000
    N3440    N        0.48784    0.31576    0.76073    1.000
    N3441    N        0.62165    0.30949    0.75382    1.000
    Si3442   Si       0.62811    0.32922    0.79229    1.000
    Si3443   Si       0.65893    0.31741    0.85435    1.000
    Si3444   Si       0.69842    0.31970    0.78409    1.000
    N3445    N        0.68363    0.34734    0.75372    1.000
    N3446    N        0.66253    0.31005    0.81213    1.000
    N3447    N        0.73316    0.33430    0.80368    1.000
    Si3448   Si       0.55075    0.32827    0.92168    1.000
    N3449    N        0.58313    0.32626    0.95054    1.000
    N3450    N        0.56011    0.31304    0.88319    1.000
    N3451    N        0.49730    0.33068    0.88719    1.000
    N3452    N        0.51665    0.30723    0.94353    1.000
    Si3453   Si       0.73102    0.33313    0.88604    1.000
    N3454    N        0.64519    0.31227    0.93954    1.000
    Si3455   Si       0.69164    0.32622    0.93419    1.000
    N3456    N        0.68973    0.31343    0.88826    1.000
    Si3457   Si       0.61975    0.35044    0.94880    1.000
    N3458    N        0.73176    0.34528    0.92893    1.000
    Si3459   Si       0.57469    0.37084    0.06754    1.000
    N3460    N        0.57622    0.37666    0.11221    1.000
    N3461    N        0.59466    0.40838    0.05746    1.000
    N3462    N        0.53196    0.36940    0.05820    1.000
    Si3463   Si       0.49342    0.37617    0.07756    1.000
    N3464    N        0.50537    0.37901    0.11976    1.000
    Si3465   Si       0.66462    0.36337    0.09932    1.000
    Si3466   Si       0.68977    0.41028    0.04943    1.000
    N3467    N        0.66753    0.37218    0.05697    1.000
    N3468    N        0.73171    0.39686    0.05439    1.000
    N3469    N        0.69510    0.39644    0.00146    1.000
    N3470    N        0.64821    0.40053    0.11573    1.000
    Si3471   Si       0.66436    0.36577    0.01357    1.000
    Si3472   Si       0.54287    0.40025    0.12693    1.000
    Si3473   Si       0.51415    0.40182    0.19647    1.000
    N3474    N        0.57718    0.38530    0.23163    1.000
    N3475    N        0.54933    0.40269    0.17003    1.000
    Si3476   Si       0.58503    0.38991    0.19065    1.000
    N3477    N        0.49640    0.36296    0.18879    1.000
    Si3478   Si       0.67862    0.40353    0.14720    1.000
    N3479    N        0.67394    0.38859    0.18764    1.000
    N3480    N        0.69656    0.36470    0.12926    1.000
    N3481    N        0.55304    0.38449    0.34958    1.000
    Si3482   Si       0.60747    0.39119    0.30086    1.000
    N3483    N        0.50902    0.41548    0.30439    1.000
    N3484    N        0.62781    0.40271    0.33639    1.000
    N3485    N        0.72518    0.38690    0.35715    1.000
    N3486    N        0.63236    0.40512    0.26704    1.000
    Si3487   Si       0.67525    0.41375    0.26341    1.000
    Si3488   Si       0.74060    0.37551    0.26626    1.000
    N3489    N        0.70024    0.37947    0.24936    1.000
    N3490    N        0.68834    0.42090    0.30404    1.000
    Si3491   Si       0.55164    0.38551    0.39200    1.000
    N3492    N        0.59402    0.37828    0.40353    1.000
    N3493    N        0.53043    0.38961    0.46720    1.000
    Si3494   Si       0.49411    0.36734    0.46283    1.000
    N3495    N        0.59228    0.36331    0.47532    1.000
    Si3496   Si       0.62002    0.40326    0.37969    1.000
    Si3497   Si       0.67282    0.38054    0.43171    1.000
    N3498    N        0.65396    0.40947    0.40420    1.000
    N3499    N        0.70401    0.40260    0.45575    1.000
    Si3500   Si       0.73067    0.36678    0.45001    1.000
    N3501    N        0.54826    0.39689    0.59712    1.000
    Si3502   Si       0.56596    0.38702    0.56084    1.000
    N3503    N        0.55812    0.41125    0.52643    1.000
    N3504    N        0.60790    0.39318    0.57380    1.000
    Si3505   Si       0.51250    0.41916    0.59306    1.000
    Si3506   Si       0.55905    0.37711    0.49899    1.000
    N3507    N        0.71752    0.40942    0.60522    1.000
    Si3508   Si       0.67971    0.40237    0.52251    1.000
    Si3509   Si       0.68646    0.38881    0.58276    1.000
    N3510    N        0.70054    0.37217    0.54382    1.000
    N3511    N        0.64305    0.39580    0.50147    1.000
    Si3512   Si       0.50541    0.41073    0.73376    1.000
    Si3513   Si       0.57018    0.40096    0.63512    1.000
    Si3514   Si       0.50400    0.41144    0.66622    1.000
    N3515    N        0.52066    0.37096    0.72551    1.000
    N3516    N        0.54129    0.38949    0.66679    1.000
    N3517    N        0.60268    0.37288    0.63971    1.000
    N3518    N        0.63024    0.41460    0.68773    1.000
    Si3519   Si       0.62204    0.37206    0.67976    1.000
    N3520    N        0.71922    0.38710    0.71508    1.000
    N3521    N        0.55795    0.38464    0.80613    1.000
    Si3522   Si       0.59654    0.40154    0.79830    1.000
    Si3523   Si       0.52250    0.40835    0.80026    1.000
    N3524    N        0.48945    0.37926    0.79281    1.000
    N3525    N        0.61434    0.41416    0.83428    1.000
    Si3526   Si       0.66675    0.38243    0.77364    1.000
    N3527    N        0.68341    0.38790    0.81305    1.000
    Si3528   Si       0.65266    0.39788    0.84154    1.000
    Si3529   Si       0.72371    0.37427    0.82172    1.000
    N3530    N        0.62628    0.37241    0.78463    1.000
    N3531    N        0.73305    0.36850    0.86325    1.000
    N3532    N        0.66409    0.41877    0.75136    1.000
    N3533    N        0.64835    0.35913    0.86154    1.000
    N3534    N        0.49177    0.40397    0.89118    1.000
    N3535    N        0.54100    0.37137    0.91796    1.000
    Si3536   Si       0.57321    0.40082    0.91482    1.000
    Si3537   Si       0.49860    0.36793    0.91195    1.000
    Si3538   Si       0.54090    0.41414    0.98077    1.000
    N3539    N        0.60965    0.37881    0.91559    1.000
    N3540    N        0.57752    0.41655    0.95548    1.000
    N3541    N        0.52963    0.37391    0.99279    1.000
    N3542    N        0.72253    0.41637    0.93903    1.000
    Si3543   Si       0.64798    0.37998    0.89872    1.000
    N3544    N        0.63133    0.37764    0.98308    1.000
    Si3545   Si       0.68416    0.40212    0.95735    1.000
    N3546    N        0.67245    0.36773    0.93368    1.000
    Si3547   Si       0.58558    0.44026    0.02997    1.000
    N3548    N        0.54384    0.44030    0.01571    1.000
    Si3549   Si       0.56743    0.46685    0.10119    1.000
    N3550    N        0.53339    0.44023    0.11247    1.000
    N3551    N        0.60300    0.44822    0.11763    1.000
    N3552    N        0.57682    0.47285    0.05796    1.000
    N3553    N        0.61227    0.45229    0.99876    1.000
    N3554    N        0.65676    0.43519    0.06064    1.000
    Si3555   Si       0.62570    0.42148    0.08791    1.000
    Si3556   Si       0.66697    0.47646    0.04751    1.000
    N3557    N        0.70944    0.47165    0.05753    1.000
    Si3558   Si       0.73604    0.47925    0.02571    1.000
    N3559    N        0.52062    0.43085    0.23038    1.000
    Si3560   Si       0.50342    0.46398    0.20613    1.000
    Si3561   Si       0.59747    0.42204    0.24438    1.000
    N3562    N        0.61322    0.42273    0.19861    1.000
    Si3563   Si       0.61445    0.45096    0.16159    1.000
    N3564    N        0.59305    0.46642    0.24752    1.000
    Si3565   Si       0.65676    0.42537    0.20060    1.000
    Si3566   Si       0.70774    0.47617    0.23360    1.000
    N3567    N        0.65857    0.44738    0.16288    1.000
    Si3568   Si       0.69514    0.46777    0.15752    1.000
    N3569    N        0.67884    0.44282    0.23313    1.000
    N3570    N        0.71649    0.42933    0.14806    1.000
    N3571    N        0.55355    0.45632    0.34355    1.000
    Si3572   Si       0.59373    0.46584    0.29252    1.000
    N3573    N        0.57838    0.42392    0.29356    1.000
    Si3574   Si       0.49892    0.43996    0.26583    1.000
    Si3575   Si       0.54683    0.41864    0.32456    1.000
    N3576    N        0.68299    0.45203    0.35572    1.000
    Si3577   Si       0.65314    0.43753    0.32601    1.000
    N3578    N        0.63157    0.47080    0.31136    1.000
    Si3579   Si       0.71259    0.42422    0.34094    1.000
    N3580    N        0.58231    0.43845    0.46768    1.000
    N3581    N        0.54497    0.42659    0.40666    1.000
    N3582    N        0.50362    0.44796    0.45117    1.000
    Si3583   Si       0.50357    0.44546    0.40615    1.000
    Si3584   Si       0.54409    0.42786    0.45221    1.000
    Si3585   Si       0.56791    0.45769    0.38589    1.000
    N3586    N        0.60896    0.44594    0.38879    1.000
    Si3587   Si       0.58412    0.47299    0.49228    1.000
    N3588    N        0.65231    0.44874    0.45819    1.000
    N3589    N        0.71573    0.47854    0.45220    1.000
    Si3590   Si       0.69495    0.44392    0.46785    1.000
    Si3591   Si       0.64386    0.45154    0.41585    1.000
    Si3592   Si       0.62243    0.42849    0.48041    1.000
    N3593    N        0.52901    0.45694    0.57236    1.000
    Si3594   Si       0.53140    0.44437    0.53223    1.000
    Si3595   Si       0.59641    0.47424    0.62017    1.000
    N3596    N        0.49139    0.44026    0.51689    1.000
    N3597    N        0.66683    0.42453    0.56007    1.000
    N3598    N        0.61729    0.46441    0.58194    1.000
    N3599    N        0.61766    0.45555    0.51841    1.000
    Si3600   Si       0.73497    0.44989    0.60637    1.000
    N3601    N        0.72475    0.47346    0.57182    1.000
    Si3602   Si       0.62458    0.42906    0.55545    1.000
    N3603    N        0.70632    0.43715    0.51207    1.000
    Si3604   Si       0.69156    0.46120    0.54664    1.000
    Si3605   Si       0.60877    0.45222    0.67981    1.000
    N3606    N        0.57769    0.46529    0.71024    1.000
    N3607    N        0.58316    0.43966    0.64149    1.000
    N3608    N        0.50501    0.43914    0.70122    1.000
    N3609    N        0.49558    0.43317    0.63097    1.000
    Si3610   Si       0.49107    0.47924    0.70876    1.000
    N3611    N        0.70424    0.44603    0.69213    1.000
    N3612    N        0.64271    0.46783    0.71852    1.000
    Si3613   Si       0.66632    0.43065    0.70928    1.000
    Si3614   Si       0.72475    0.48027    0.67583    1.000
    N3615    N        0.50734    0.43592    0.83127    1.000
    Si3616   Si       0.59652    0.44561    0.86178    1.000
    N3617    N        0.59871    0.43456    0.77088    1.000
    N3618    N        0.52878    0.43140    0.76406    1.000
    Si3619   Si       0.56445    0.45544    0.75162    1.000
    Si3620   Si       0.63735    0.45080    0.75986    1.000
    Si3621   Si       0.51914    0.43440    0.87484    1.000
    N3622    N        0.50127    0.46937    0.89335    1.000
    N3623    N        0.51105    0.43082    0.95265    1.000
    N3624    N        0.56154    0.42891    0.88168    1.000
    N3625    N        0.69170    0.47623    0.90561    1.000
    N3626    N        0.65231    0.43026    0.94658    1.000
    Si3627   Si       0.72705    0.45386    0.91753    1.000
    N3628    N        0.61708    0.47066    0.89154    1.000
    Si3629   Si       0.65681    0.45191    0.90935    1.000
    Si3630   Si       0.61737    0.41639    0.96995    1.000
    N3631    N        0.65847    0.41862    0.88136    1.000
    N3632    N        0.52767    0.51749    0.06197    1.000
    Si3633   Si       0.60180    0.50740    0.05222    1.000
    N3634    N        0.60727    0.52289    0.01248    1.000
    Si3635   Si       0.53648    0.48386    0.03131    1.000
    N3636    N        0.73903    0.52739    0.07472    1.000
    N3637    N        0.66688    0.49218    0.00571    1.000
    N3638    N        0.64233    0.50384    0.06830    1.000
    Si3639   Si       0.72504    0.49071    0.09396    1.000
    Si3640   Si       0.63620    0.53884    0.09270    1.000
    Si3641   Si       0.69047    0.52695    0.99621    1.000
    N3642    N        0.56444    0.50539    0.12363    1.000
    N3643    N        0.58037    0.53408    0.23281    1.000
    N3644    N        0.59982    0.48886    0.18056    1.000
    Si3645   Si       0.57754    0.49296    0.21881    1.000
    N3646    N        0.53620    0.49275    0.20622    1.000
    Si3647   Si       0.51083    0.52783    0.20037    1.000
    Si3648   Si       0.59504    0.51965    0.15096    1.000
    N3649    N        0.71803    0.48300    0.19137    1.000
    N3650    N        0.69764    0.49764    0.12629    1.000
    N3651    N        0.63354    0.52294    0.13232    1.000
    N3652    N        0.57444    0.50572    0.30137    1.000
    Si3653   Si       0.53693    0.49013    0.31900    1.000
    N3654    N        0.53018    0.52625    0.34315    1.000
    N3655    N        0.61292    0.53637    0.34926    1.000
    N3656    N        0.50865    0.47879    0.28770    1.000
    N3657    N        0.67632    0.51918    0.33256    1.000
    Si3658   Si       0.63352    0.51431    0.31890    1.000
    Si3659   Si       0.68619    0.49251    0.36896    1.000
    Si3660   Si       0.73588    0.52163    0.25741    1.000
    N3661    N        0.62942    0.53493    0.28072    1.000
    N3662    N        0.69255    0.51728    0.24644    1.000
    Si3663   Si       0.57208    0.52600    0.42974    1.000
    Si3664   Si       0.52184    0.51908    0.38699    1.000
    N3665    N        0.58863    0.50978    0.46791    1.000
    N3666    N        0.55960    0.49831    0.39783    1.000
    N3667    N        0.49492    0.48508    0.39237    1.000
    N3668    N        0.66446    0.49017    0.40629    1.000
    N3669    N        0.65860    0.52568    0.46504    1.000
    N3670    N        0.72744    0.50229    0.37401    1.000
    Si3671   Si       0.68719    0.50991    0.43731    1.000
    Si3672   Si       0.53088    0.49795    0.58460    1.000
    Si3673   Si       0.52337    0.51659    0.51394    1.000
    N3674    N        0.59723    0.51740    0.53432    1.000
    N3675    N        0.52047    0.52859    0.55530    1.000
    N3676    N        0.56464    0.50290    0.61260    1.000
    N3677    N        0.49539    0.50147    0.61008    1.000
    N3678    N        0.54307    0.47914    0.50788    1.000
    Si3679   Si       0.62524    0.48902    0.54693    1.000
    N3680    N        0.66666    0.49588    0.54122    1.000
    Si3681   Si       0.72402    0.50817    0.60099    1.000
    N3682    N        0.68710    0.52791    0.59837    1.000
    Si3683   Si       0.68648    0.53218    0.55459    1.000
    Si3684   Si       0.57274    0.50835    0.71759    1.000
    N3685    N        0.50587    0.51686    0.73088    1.000
    N3686    N        0.54795    0.52460    0.68555    1.000
    Si3687   Si       0.55660    0.53221    0.64312    1.000
    N3688    N        0.61016    0.52782    0.71222    1.000
    Si3689   Si       0.64193    0.50746    0.73484    1.000
    Si3690   Si       0.62088    0.52680    0.66952    1.000
    N3691    N        0.61883    0.48763    0.65350    1.000
    N3692    N        0.67622    0.53145    0.73585    1.000
    N3693    N        0.72334    0.51683    0.69826    1.000
    N3694    N        0.72197    0.48131    0.63391    1.000
    N3695    N        0.57048    0.49761    0.76292    1.000
    Si3696   Si       0.60034    0.50129    0.79681    1.000
    N3697    N        0.59495    0.48026    0.83284    1.000
    N3698    N        0.73678    0.50623    0.85742    1.000
    Si3699   Si       0.62411    0.50087    0.85966    1.000
    N3700    N        0.66465    0.49458    0.84576    1.000
    N3701    N        0.70793    0.50859    0.78912    1.000
    Si3702   Si       0.66855    0.51507    0.80502    1.000
    N3703    N        0.63926    0.49097    0.77771    1.000
    Si3704   Si       0.71614    0.51647    0.74635    1.000
    N3705    N        0.51091    0.53846    0.87600    1.000
    Si3706   Si       0.60168    0.50374    0.91844    1.000
    N3707    N        0.56358    0.51801    0.92875    1.000
    N3708    N        0.61272    0.53279    0.88377    1.000
    N3709    N        0.53316    0.50920    0.99429    1.000
    Si3710   Si       0.54831    0.53902    0.96662    1.000
    Si3711   Si       0.48968    0.50209    0.99362    1.000
    Si3712   Si       0.62694    0.49213    0.98753    1.000
    Si3713   Si       0.69665    0.50613    0.87348    1.000
    N3714    N        0.63215    0.51097    0.94797    1.000
    N3715    N        0.73127    0.50812    0.99558    1.000
    N3716    N        0.54914    0.58133    0.09307    1.000
    Si3717   Si       0.58890    0.58391    0.07593    1.000
    Si3718   Si       0.60580    0.56749    0.00777    1.000
    N3719    N        0.59379    0.54236    0.07668    1.000
    Si3720   Si       0.50994    0.59114    0.10741    1.000
    N3721    N        0.50566    0.54585    0.11689    1.000
    Si3722   Si       0.54531    0.53632    0.09724    1.000
    Si3723   Si       0.70705    0.55892    0.06807    1.000
    N3724    N        0.68897    0.55583    0.02799    1.000
    N3725    N        0.67625    0.55438    0.09710    1.000
    Si3726   Si       0.67815    0.59455    0.01012    1.000
    Si3727   Si       0.57159    0.56479    0.20263    1.000
    N3728    N        0.52895    0.56550    0.19257    1.000
    N3729    N        0.58942    0.56252    0.16409    1.000
    Si3730   Si       0.61735    0.58999    0.14803    1.000
    N3731    N        0.65837    0.57982    0.15809    1.000
    Si3732   Si       0.67636    0.53974    0.13883    1.000
    Si3733   Si       0.68550    0.57747    0.19103    1.000
    N3734    N        0.70530    0.54462    0.17190    1.000
    N3735    N        0.66110    0.57395    0.22670    1.000
    N3736    N        0.56531    0.56843    0.30098    1.000
    Si3737   Si       0.57211    0.54520    0.33783    1.000
    N3738    N        0.56826    0.57546    0.37017    1.000
    Si3739   Si       0.58590    0.53807    0.27574    1.000
    N3740    N        0.50014    0.59463    0.31674    1.000
    N3741    N        0.68892    0.57328    0.29235    1.000
    Si3742   Si       0.66520    0.54940    0.26210    1.000
    N3743    N        0.72816    0.56454    0.35324    1.000
    Si3744   Si       0.70878    0.54485    0.32007    1.000
    N3745    N        0.53086    0.54700    0.42291    1.000
    Si3746   Si       0.51458    0.58613    0.43174    1.000
    N3747    N        0.60690    0.55168    0.42165    1.000
    Si3748   Si       0.61339    0.56623    0.38160    1.000
    N3749    N        0.70547    0.56954    0.49242    1.000
    Si3750   Si       0.73729    0.54224    0.38908    1.000
    N3751    N        0.66194    0.59006    0.45003    1.000
    N3752    N        0.70887    0.54439    0.42212    1.000
    Si3753   Si       0.63425    0.55667    0.45386    1.000
    N3754    N        0.61949    0.57289    0.49623    1.000
    Si3755   Si       0.70514    0.57601    0.44934    1.000
    Si3756   Si       0.50188    0.56970    0.55604    1.000
    N3757    N        0.49689    0.58422    0.51606    1.000
    Si3758   Si       0.53855    0.59060    0.50001    1.000
    N3759    N        0.54899    0.54904    0.50018    1.000
    Si3760   Si       0.58998    0.54023    0.50011    1.000
    Si3761   Si       0.66478    0.58053    0.50387    1.000
    N3762    N        0.66627    0.56969    0.54608    1.000
    N3763    N        0.64581    0.58169    0.61269    1.000
    Si3764   Si       0.73670    0.57520    0.52256    1.000
    N3765    N        0.72751    0.54048    0.54839    1.000
    N3766    N        0.52835    0.55952    0.62427    1.000
    Si3767   Si       0.58092    0.59988    0.73869    1.000
    Si3768   Si       0.52693    0.55107    0.71408    1.000
    N3769    N        0.50271    0.58660    0.71621    1.000
    N3770    N        0.59576    0.55301    0.64745    1.000
    Si3771   Si       0.61146    0.58891    0.63582    1.000
    N3772    N        0.55979    0.56119    0.74118    1.000
    N3773    N        0.71431    0.57080    0.64300    1.000
    N3774    N        0.70231    0.58619    0.70706    1.000
    Si3775   Si       0.69133    0.54535    0.69603    1.000
    Si3776   Si       0.67644    0.55618    0.62822    1.000
    N3777    N        0.66063    0.54379    0.66677    1.000
    Si3778   Si       0.50370    0.56145    0.83856    1.000
    N3779    N        0.59274    0.54409    0.80044    1.000
    N3780    N        0.52371    0.54108    0.80497    1.000
    Si3781   Si       0.61759    0.57903    0.81099    1.000
    N3782    N        0.60894    0.59442    0.85085    1.000
    Si3783   Si       0.55504    0.53872    0.77739    1.000
    N3784    N        0.65760    0.55748    0.80968    1.000
    N3785    N        0.72807    0.57266    0.84497    1.000
    Si3786   Si       0.72212    0.59435    0.74613    1.000
    Si3787   Si       0.53797    0.54890    0.90829    1.000
    N3788    N        0.51399    0.55704    0.94286    1.000
    Si3789   Si       0.60671    0.57626    0.89044    1.000
    N3790    N        0.57425    0.57097    0.97699    1.000
    N3791    N        0.56711    0.58131    0.90846    1.000
    N3792    N        0.68893    0.54293    0.95726    1.000
    Si3793   Si       0.71764    0.57444    0.95106    1.000
    Si3794   Si       0.70113    0.58327    0.87950    1.000
    Si3795   Si       0.65966    0.54125    0.92652    1.000
    N3796    N        0.68599    0.54449    0.89155    1.000
    N3797    N        0.64133    0.58670    0.98804    1.000
    N3798    N        0.63802    0.57890    0.92039    1.000
    N3799    N        0.50296    0.62458    0.07701    1.000
    N3800    N        0.60231    0.59847    0.03910    1.000
    Si3801   Si       0.62709    0.63605    0.03669    1.000
    N3802    N        0.66870    0.62325    0.03965    1.000
    Si3803   Si       0.70823    0.63509    0.05669    1.000
    Si3804   Si       0.63207    0.63820    0.11073    1.000
    N3805    N        0.72820    0.59723    0.06802    1.000
    N3806    N        0.61815    0.59639    0.10534    1.000
    N3807    N        0.49132    0.60422    0.14581    1.000
    N3808    N        0.53059    0.63111    0.20216    1.000
    Si3809   Si       0.50564    0.60167    0.18710    1.000
    Si3810   Si       0.56489    0.63149    0.22943    1.000
    N3811    N        0.59278    0.59791    0.22175    1.000
    N3812    N        0.65391    0.64031    0.21069    1.000
    N3813    N        0.71707    0.60924    0.19331    1.000
    Si3814   Si       0.63356    0.60890    0.23333    1.000
    N3815    N        0.61344    0.63491    0.15243    1.000
    Si3816   Si       0.69855    0.64086    0.21809    1.000
    N3817    N        0.55355    0.63454    0.27069    1.000
    N3818    N        0.55100    0.63231    0.33882    1.000
    Si3819   Si       0.54412    0.60756    0.30366    1.000
    N3820    N        0.63901    0.61596    0.27402    1.000
    Si3821   Si       0.68054    0.61616    0.28981    1.000
    N3822    N        0.70922    0.63213    0.25904    1.000
    N3823    N        0.67905    0.64545    0.32138    1.000
    N3824    N        0.54110    0.60655    0.46011    1.000
    Si3825   Si       0.55397    0.61481    0.37925    1.000
    N3826    N        0.51315    0.61195    0.39678    1.000
    N3827    N        0.58092    0.63797    0.40890    1.000
    N3828    N        0.60379    0.63296    0.47493    1.000
    Si3829   Si       0.56612    0.64575    0.44986    1.000
    Si3830   Si       0.49465    0.65040    0.40702    1.000
    Si3831   Si       0.64590    0.63105    0.46121    1.000
    N3832    N        0.63243    0.60382    0.37864    1.000
    Si3833   Si       0.61890    0.64093    0.39171    1.000
    N3834    N        0.71232    0.65226    0.46965    1.000
    Si3835   Si       0.60001    0.63957    0.58652    1.000
    Si3836   Si       0.53840    0.63787    0.55156    1.000
    N3837    N        0.56549    0.61225    0.52624    1.000
    N3838    N        0.52064    0.60659    0.57672    1.000
    Si3839   Si       0.60915    0.61455    0.51349    1.000
    N3840    N        0.58270    0.60625    0.60660    1.000
    Si3841   Si       0.54030    0.60040    0.61434    1.000
    N3842    N        0.62304    0.62223    0.55585    1.000
    N3843    N        0.68127    0.63468    0.58904    1.000
    Si3844   Si       0.71728    0.64277    0.56890    1.000
    N3845    N        0.72534    0.61580    0.53669    1.000
    Si3846   Si       0.69989    0.64415    0.50970    1.000
    Si3847   Si       0.65715    0.60160    0.57386    1.000
    N3848    N        0.66072    0.62522    0.50283    1.000
    N3849    N        0.60457    0.61582    0.66922    1.000
    Si3850   Si       0.51748    0.62755    0.72846    1.000
    N3851    N        0.55899    0.62746    0.71446    1.000
    N3852    N        0.53306    0.62136    0.65104    1.000
    Si3853   Si       0.56731    0.63500    0.67364    1.000
    Si3854   Si       0.49708    0.64450    0.66390    1.000
    Si3855   Si       0.63638    0.62851    0.69377    1.000
    N3856    N        0.74133    0.63032    0.66792    1.000
    N3857    N        0.62281    0.61638    0.73224    1.000
    Si3858   Si       0.70692    0.60504    0.66812    1.000
    N3859    N        0.67283    0.63066    0.66323    1.000
    Si3860   Si       0.66660    0.65300    0.62395    1.000
    N3861    N        0.51472    0.63178    0.76937    1.000
    Si3862   Si       0.54110    0.62013    0.80355    1.000
    N3863    N        0.57899    0.61171    0.78151    1.000
    Si3864   Si       0.50304    0.64276    0.85314    1.000
    N3865    N        0.51712    0.60119    0.83569    1.000
    Si3866   Si       0.74256    0.60846    0.82021    1.000
    Si3867   Si       0.61755    0.63518    0.77159    1.000
    N3868    N        0.71023    0.60653    0.78693    1.000
    N3869    N        0.64025    0.61884    0.80321    1.000
    N3870    N        0.68283    0.61348    0.85338    1.000
    Si3871   Si       0.63547    0.64824    0.84113    1.000
    Si3872   Si       0.67848    0.59710    0.81385    1.000
    Si3873   Si       0.53004    0.65567    0.91842    1.000
    N3874    N        0.50148    0.63102    0.89547    1.000
    N3875    N        0.60061    0.63094    0.94078    1.000
    N3876    N        0.53719    0.63344    0.95671    1.000
    Si3877   Si       0.56771    0.60347    0.94795    1.000
    N3878    N        0.71462    0.60173    0.91733    1.000
    N3879    N        0.71302    0.60070    0.98616    1.000
    Si3880   Si       0.63669    0.60987    0.95109    1.000
    N3881    N        0.66487    0.64134    0.95086    1.000
    Si3882   Si       0.70291    0.64127    0.93103    1.000
    Si3883   Si       0.58294    0.67993    0.01280    1.000
    N3884    N        0.50071    0.69285    0.05684    1.000
    Si3885   Si       0.59162    0.69121    0.08660    1.000
    N3886    N        0.55018    0.67958    0.09411    1.000
    N3887    N        0.59056    0.70641    0.04560    1.000
    Si3888   Si       0.52827    0.65662    0.06379    1.000
    N3889    N        0.55141    0.65395    0.02718    1.000
    N3890    N        0.61179    0.71019    0.11962    1.000
    Si3891   Si       0.72728    0.69831    0.03289    1.000
    N3892    N        0.72077    0.66651    0.08580    1.000
    N3893    N        0.62120    0.66196    0.00203    1.000
    N3894    N        0.72640    0.65585    0.02231    1.000
    N3895    N        0.61312    0.65417    0.07534    1.000
    Si3896   Si       0.56756    0.70011    0.21159    1.000
    N3897    N        0.58895    0.66397    0.21269    1.000
    N3898    N        0.53690    0.69147    0.23922    1.000
    Si3899   Si       0.49913    0.71033    0.23411    1.000
    N3900    N        0.73658    0.65741    0.15544    1.000
    Si3901   Si       0.70700    0.67165    0.12536    1.000
    N3902    N        0.66428    0.66546    0.12179    1.000
    N3903    N        0.63780    0.69909    0.17613    1.000
    N3904    N        0.70483    0.70923    0.14589    1.000
    Si3905   Si       0.62390    0.65805    0.18577    1.000
    Si3906   Si       0.66618    0.70900    0.20927    1.000
    N3907    N        0.70322    0.68366    0.21187    1.000
    Si3908   Si       0.65523    0.70934    0.13510    1.000
    Si3909   Si       0.73246    0.69328    0.17802    1.000
    N3910    N        0.52451    0.68620    0.30760    1.000
    Si3911   Si       0.55447    0.67724    0.27720    1.000
    Si3912   Si       0.59552    0.70045    0.34264    1.000
    Si3913   Si       0.53103    0.66931    0.34634    1.000
    N3914    N        0.58939    0.69631    0.29706    1.000
    N3915    N        0.55721    0.69941    0.36257    1.000
    N3916    N        0.49369    0.66977    0.36814    1.000
    N3917    N        0.62013    0.67211    0.36286    1.000
    N3918    N        0.71960    0.69418    0.29301    1.000
    Si3919   Si       0.65969    0.67876    0.34392    1.000
    Si3920   Si       0.71959    0.66039    0.31980    1.000
    N3921    N        0.73438    0.67584    0.35787    1.000
    N3922    N        0.65391    0.71371    0.31730    1.000
    N3923    N        0.56962    0.69005    0.46457    1.000
    Si3924   Si       0.52886    0.70202    0.45118    1.000
    N3925    N        0.52231    0.66329    0.43558    1.000
    Si3926   Si       0.72601    0.69164    0.44623    1.000
    N3927    N        0.68367    0.70973    0.45199    1.000
    N3928    N        0.64616    0.65554    0.42431    1.000
    N3929    N        0.67902    0.69968    0.37911    1.000
    Si3930   Si       0.65722    0.69732    0.41681    1.000
    Si3931   Si       0.72011    0.71477    0.37450    1.000
    N3932    N        0.50993    0.66596    0.53535    1.000
    N3933    N        0.56762    0.66404    0.57160    1.000
    Si3934   Si       0.51686    0.70835    0.52463    1.000
    Si3935   Si       0.57201    0.70665    0.56728    1.000
    N3936    N        0.56122    0.71688    0.52606    1.000
    N3937    N        0.70689    0.67506    0.53882    1.000
    Si3938   Si       0.73246    0.70798    0.55311    1.000
    N3939    N        0.62281    0.65796    0.61873    1.000
    N3940    N        0.50158    0.67663    0.63362    1.000
    N3941    N        0.57307    0.67533    0.65828    1.000
    Si3942   Si       0.51309    0.70105    0.71307    1.000
    Si3943   Si       0.54009    0.70102    0.63997    1.000
    Si3944   Si       0.61481    0.68579    0.65336    1.000
    N3945    N        0.50258    0.66016    0.70347    1.000
    Si3946   Si       0.68078    0.67366    0.68048    1.000
    N3947    N        0.70998    0.67470    0.71018    1.000
    Si3948   Si       0.71293    0.70928    0.73989    1.000
    Si3949   Si       0.63194    0.69773    0.72894    1.000
    N3950    N        0.63849    0.67448    0.69269    1.000
    N3951    N        0.68771    0.68845    0.64127    1.000
    Si3952   Si       0.56272    0.68259    0.84932    1.000
    N3953    N        0.60012    0.67256    0.82816    1.000
    Si3954   Si       0.51550    0.67387    0.78476    1.000
    N3955    N        0.53437    0.65941    0.82403    1.000
    N3956    N        0.53738    0.69482    0.74884    1.000
    N3957    N        0.49992    0.68950    0.87211    1.000
    Si3958   Si       0.61223    0.70428    0.79886    1.000
    N3959    N        0.61686    0.67763    0.76386    1.000
    N3960    N        0.67276    0.67485    0.83640    1.000
    N3961    N        0.72871    0.71105    0.85311    1.000
    Si3962   Si       0.70434    0.65273    0.85665    1.000
    N3963    N        0.56299    0.67107    0.89292    1.000
    N3964    N        0.51311    0.69252    0.93483    1.000
    N3965    N        0.55698    0.69669    0.98072    1.000
    Si3966   Si       0.60154    0.66395    0.91317    1.000
    Si3967   Si       0.52849    0.66209    0.98628    1.000
    Si3968   Si       0.64411    0.67527    0.96825    1.000
    Si3969   Si       0.72233    0.70045    0.96361    1.000
    Si3970   Si       0.66067    0.68887    0.89471    1.000
    N3971    N        0.73200    0.65976    0.95655    1.000
    N3972    N        0.68149    0.69810    0.97593    1.000
    N3973    N        0.70228    0.66979    0.89732    1.000
    N3974    N        0.62513    0.69369    0.93452    1.000
    Si3975   Si       0.73885    0.69858    0.89360    1.000
    N3976    N        0.63314    0.65744    0.88430    1.000
    N3977    N        0.53947    0.75093    0.07518    1.000
    Si3978   Si       0.60438    0.74381    0.03011    1.000
    N3979    N        0.57223    0.77023    0.01618    1.000
    Si3980   Si       0.52172    0.71327    0.08951    1.000
    Si3981   Si       0.67023    0.73249    0.00480    1.000
    N3982    N        0.62970    0.76064    0.05993    1.000
    N3983    N        0.73516    0.76172    0.09999    1.000
    N3984    N        0.69107    0.71832    0.04084    1.000
    Si3985   Si       0.73532    0.76422    0.99848    1.000
    N3986    N        0.66815    0.75255    0.12206    1.000
    Si3987   Si       0.60095    0.77098    0.21379    1.000
    N3988    N        0.49830    0.72544    0.12573    1.000
    N3989    N        0.49680    0.73229    0.19570    1.000
    N3990    N        0.58998    0.73217    0.23370    1.000
    Si3991   Si       0.52569    0.73438    0.16059    1.000
    Si3992   Si       0.60189    0.72178    0.15937    1.000
    N3993    N        0.56140    0.71377    0.17221    1.000
    N3994    N        0.61140    0.76299    0.17112    1.000
    N3995    N        0.67982    0.75188    0.20644    1.000
    Si3996   Si       0.71009    0.75155    0.13609    1.000
    N3997    N        0.51266    0.74765    0.34531    1.000
    Si3998   Si       0.50173    0.72174    0.31017    1.000
    N3999    N        0.49788    0.73898    0.26816    1.000
    Si4000   Si       0.61223    0.72381    0.27051    1.000
    N4001    N        0.61189    0.73925    0.35864    1.000
    N4002    N        0.61367    0.76170    0.29459    1.000
    Si4003   Si       0.63983    0.75305    0.32920    1.000
    N4004    N        0.72898    0.74937    0.35016    1.000
    N4005    N        0.69435    0.75788    0.27427    1.000
    Si4006   Si       0.73442    0.77211    0.26460    1.000
    Si4007   Si       0.68405    0.71541    0.28327    1.000
    Si4008   Si       0.66323    0.76303    0.24443    1.000
    N4009    N        0.65247    0.71814    0.25102    1.000
    N4010    N        0.56523    0.76908    0.39337    1.000
    Si4011   Si       0.54487    0.76671    0.43290    1.000
    Si4012   Si       0.61167    0.75729    0.39751    1.000
    Si4013   Si       0.53947    0.73464    0.37866    1.000
    N4014    N        0.56576    0.75959    0.47019    1.000
    N4015    N        0.52321    0.73115    0.41959    1.000
    Si4016   Si       0.58319    0.72335    0.48919    1.000
    N4017    N        0.50202    0.71380    0.48356    1.000
    Si4018   Si       0.65260    0.73836    0.46420    1.000
    Si4019   Si       0.73000    0.76397    0.42463    1.000
    N4020    N        0.73285    0.72223    0.41440    1.000
    N4021    N        0.62793    0.72824    0.42763    1.000
    N4022    N        0.73479    0.77173    0.46541    1.000
    N4023    N        0.50255    0.73059    0.55957    1.000
    Si4024   Si       0.52208    0.75524    0.58888    1.000
    N4025    N        0.55626    0.72774    0.60606    1.000
    Si4026   Si       0.59952    0.74342    0.60889    1.000
    N4027    N        0.61173    0.72599    0.56993    1.000
    N4028    N        0.49518    0.77035    0.62096    1.000
    N4029    N        0.70801    0.72517    0.58657    1.000
    Si4030   Si       0.62608    0.74791    0.53546    1.000
    Si4031   Si       0.70228    0.76070    0.56073    1.000
    N4032    N        0.72861    0.74536    0.53058    1.000
    N4033    N        0.66606    0.77106    0.53813    1.000
    N4034    N        0.62571    0.72856    0.49660    1.000
    N4035    N        0.60255    0.72815    0.71775    1.000
    N4036    N        0.54431    0.75997    0.73349    1.000
    Si4037   Si       0.53660    0.76355    0.68978    1.000
    Si4038   Si       0.61060    0.75476    0.68384    1.000
    N4039    N        0.52733    0.72221    0.67607    1.000
    Si4040   Si       0.56723    0.72717    0.74453    1.000
    N4041    N        0.61586    0.72910    0.64651    1.000
    N4042    N        0.66903    0.71562    0.74375    1.000
    Si4043   Si       0.73961    0.75179    0.67634    1.000
    Si4044   Si       0.71274    0.72197    0.62981    1.000
    N4045    N        0.70299    0.75802    0.65322    1.000
    N4046    N        0.72591    0.74557    0.71910    1.000
    Si4047   Si       0.56441    0.75838    0.81398    1.000
    N4048    N        0.58186    0.73255    0.78494    1.000
    N4049    N        0.55285    0.72456    0.84319    1.000
    Si4050   Si       0.51859    0.72827    0.86709    1.000
    N4051    N        0.48820    0.75668    0.85251    1.000
    Si4052   Si       0.68095    0.71744    0.83558    1.000
    Si4053   Si       0.67158    0.74452    0.77628    1.000
    N4054    N        0.64489    0.72870    0.80900    1.000
    N4055    N        0.70542    0.73192    0.80001    1.000
    Si4056   Si       0.49354    0.76030    0.92389    1.000
    N4057    N        0.53110    0.74898    0.90232    1.000
    N4058    N        0.50710    0.75338    0.96596    1.000
    N4059    N        0.57625    0.75223    0.94797    1.000
    Si4060   Si       0.53952    0.72451    0.94937    1.000
    Si4061   Si       0.56921    0.77049    0.90621    1.000
    N4062    N        0.66583    0.72736    0.87703    1.000
    Si4063   Si       0.66046    0.76796    0.89482    1.000
    N4064    N        0.62674    0.73052    0.99407    1.000
    Si4065   Si       0.61680    0.73358    0.94991    1.000
    N4066    N        0.73585    0.72311    0.92911    1.000
    N4067    N        0.64828    0.75909    0.93608    1.000
    N4068    N        0.69464    0.76571    0.98634    1.000
    N4069    N        0.56881    0.81511    0.07092    1.000
    N4070    N        0.50752    0.78714    0.03259    1.000
    Si4071   Si       0.54750    0.78318    0.04927    1.000
    N4072    N        0.49234    0.81539    0.09533    1.000
    Si4073   Si       0.61037    0.82974    0.07933    1.000
    N4074    N        0.63188    0.80672    0.11078    1.000
    N4075    N        0.68478    0.80374    0.06829    1.000
    Si4076   Si       0.72728    0.79366    0.07210    1.000
    Si4077   Si       0.65609    0.77856    0.08957    1.000
    Si4078   Si       0.50374    0.80505    0.13706    1.000
    N4079    N        0.56560    0.79616    0.21034    1.000
    Si4080   Si       0.55907    0.80397    0.16990    1.000
    N4081    N        0.59464    0.82607    0.16225    1.000
    N4082    N        0.53560    0.77641    0.14766    1.000
    Si4083   Si       0.56131    0.83179    0.23456    1.000
    Si4084   Si       0.63096    0.79851    0.15377    1.000
    Si4085   Si       0.70098    0.79014    0.19642    1.000
    N4086    N        0.72955    0.77504    0.16675    1.000
    N4087    N        0.66822    0.81215    0.17597    1.000
    N4088    N        0.62972    0.79090    0.23814    1.000
    N4089    N        0.71952    0.80325    0.23436    1.000
    N4090    N        0.50882    0.79701    0.29825    1.000
    N4091    N        0.57157    0.82204    0.27389    1.000
    Si4092   Si       0.54120    0.82478    0.30492    1.000
    Si4093   Si       0.49595    0.78664    0.33797    1.000
    N4094    N        0.56867    0.81678    0.33911    1.000
    Si4095   Si       0.60975    0.80252    0.27649    1.000
    N4096    N        0.50917    0.81201    0.37068    1.000
    N4097    N        0.66525    0.78691    0.33952    1.000
    Si4098   Si       0.70290    0.78212    0.35945    1.000
    N4099    N        0.72412    0.82128    0.35468    1.000
    Si4100   Si       0.65265    0.82778    0.33799    1.000
    Si4101   Si       0.55123    0.80740    0.37896    1.000
    N4102    N        0.52778    0.80548    0.42994    1.000
    Si4103   Si       0.57723    0.79652    0.48918    1.000
    N4104    N        0.59224    0.82580    0.45799    1.000
    N4105    N        0.71037    0.82965    0.43640    1.000
    N4106    N        0.69302    0.77769    0.40270    1.000
    Si4107   Si       0.66927    0.80355    0.43183    1.000
    N4108    N        0.62878    0.79280    0.41160    1.000
    Si4109   Si       0.73456    0.81521    0.47328    1.000
    N4110    N        0.66466    0.77977    0.46946    1.000
    Si4111   Si       0.61709    0.83373    0.41071    1.000
    N4112    N        0.53777    0.78940    0.56866    1.000
    Si4113   Si       0.58140    0.79692    0.56188    1.000
    Si4114   Si       0.52142    0.81639    0.53963    1.000
    N4115    N        0.60376    0.78353    0.59675    1.000
    N4116    N        0.59625    0.77919    0.52488    1.000
    N4117    N        0.54352    0.82004    0.50006    1.000
    Si4118   Si       0.63076    0.81602    0.60938    1.000
    Si4119   Si       0.67227    0.80181    0.50855    1.000
    N4120    N        0.71010    0.82298    0.50862    1.000
    N4121    N        0.72192    0.79591    0.57756    1.000
    Si4122   Si       0.49771    0.80497    0.64891    1.000
    Si4123   Si       0.57480    0.81735    0.65741    1.000
    N4124    N        0.53521    0.82556    0.64422    1.000
    N4125    N        0.49711    0.78300    0.68536    1.000
    N4126    N        0.57469    0.77539    0.66955    1.000
    Si4127   Si       0.71924    0.78644    0.73432    1.000
    N4128    N        0.72687    0.83034    0.62917    1.000
    Si4129   Si       0.68057    0.79115    0.66938    1.000
    N4130    N        0.71084    0.81393    0.69842    1.000
    N4131    N        0.66456    0.80937    0.63405    1.000
    N4132    N        0.64566    0.77779    0.69041    1.000
    N4133    N        0.59524    0.78838    0.81732    1.000
    Si4134   Si       0.54093    0.79378    0.75796    1.000
    N4135    N        0.57602    0.81863    0.75637    1.000
    Si4136   Si       0.59775    0.82471    0.79374    1.000
    Si4137   Si       0.49128    0.78370    0.81754    1.000
    N4138    N        0.53137    0.78355    0.79995    1.000
    N4139    N        0.50692    0.81902    0.74561    1.000
    Si4140   Si       0.61971    0.79824    0.85078    1.000
    Si4141   Si       0.68317    0.82068    0.78537    1.000
    N4142    N        0.68553    0.78347    0.76199    1.000
    N4143    N        0.66243    0.79567    0.85863    1.000
    Si4144   Si       0.69041    0.83079    0.85697    1.000
    N4145    N        0.48946    0.80198    0.92072    1.000
    Si4146   Si       0.50062    0.79098    0.98900    1.000
    N4147    N        0.60600    0.81693    0.98251    1.000
    N4148    N        0.53657    0.81009    0.97296    1.000
    N4149    N        0.55775    0.81244    0.90672    1.000
    Si4150   Si       0.57385    0.78805    0.97661    1.000
    Si4151   Si       0.52395    0.82608    0.93351    1.000
    N4152    N        0.60634    0.77294    0.88450    1.000
    N4153    N        0.66782    0.82592    0.96194    1.000
    Si4154   Si       0.73072    0.81451    0.91301    1.000
    N4155    N        0.69642    0.78849    0.91163    1.000
    Si4156   Si       0.67808    0.78599    0.95281    1.000
    N4157    N        0.59242    0.86821    0.09543    1.000
    Si4158   Si       0.55587    0.85786    0.07279    1.000
    N4159    N        0.57256    0.87469    0.03564    1.000
    N4160    N        0.52898    0.86721    0.10912    1.000
    N4161    N        0.51501    0.86849    0.04753    1.000
    Si4162   Si       0.49436    0.85788    0.08580    1.000
    Si4163   Si       0.61541    0.88198    0.03122    1.000
    Si4164   Si       0.72059    0.86545    0.10567    1.000
    N4165    N        0.70145    0.85810    0.01692    1.000
    N4166    N        0.68282    0.87414    0.08639    1.000
    Si4167   Si       0.67888    0.84469    0.05323    1.000
    N4168    N        0.63588    0.84744    0.04891    1.000
    Si4169   Si       0.53301    0.87528    0.15144    1.000
    Si4170   Si       0.60266    0.86394    0.17674    1.000
    N4171    N        0.59009    0.86030    0.21708    1.000
    N4172    N        0.52308    0.85264    0.23277    1.000
    N4173    N        0.52608    0.83438    0.16793    1.000
    Si4174   Si       0.49781    0.83347    0.20522    1.000
    N4175    N        0.69088    0.86044    0.22102    1.000
    N4176    N        0.71304    0.85996    0.15039    1.000
    Si4177   Si       0.67875    0.85473    0.17776    1.000
    N4178    N        0.64366    0.87976    0.17252    1.000
    N4179    N        0.51843    0.86273    0.30318    1.000
    Si4180   Si       0.58907    0.85115    0.35389    1.000
    Si4181   Si       0.52720    0.88221    0.26553    1.000
    N4182    N        0.59904    0.88618    0.33038    1.000
    Si4183   Si       0.49077    0.88651    0.32586    1.000
    Si4184   Si       0.63163    0.87589    0.29978    1.000
    N4185    N        0.71871    0.84400    0.28995    1.000
    N4186    N        0.66772    0.87889    0.32464    1.000
    Si4187   Si       0.70615    0.88284    0.30599    1.000
    Si4188   Si       0.65388    0.88723    0.36744    1.000
    N4189    N        0.63376    0.83183    0.29844    1.000
    Si4190   Si       0.72142    0.84484    0.24685    1.000
    Si4191   Si       0.55587    0.83626    0.43614    1.000
    N4192    N        0.57378    0.84121    0.39654    1.000
    N4193    N        0.53720    0.87075    0.45231    1.000
    N4194    N        0.63162    0.84846    0.36896    1.000
    Si4195   Si       0.62507    0.85096    0.47242    1.000
    Si4196   Si       0.68644    0.86666    0.43134    1.000
    N4197    N        0.69036    0.88227    0.39002    1.000
    N4198    N        0.64902    0.84573    0.43760    1.000
    N4199    N        0.52321    0.86189    0.54264    1.000
    N4200    N        0.58663    0.83912    0.55813    1.000
    Si4201   Si       0.58044    0.88085    0.54905    1.000
    N4202    N        0.50157    0.87053    0.60454    1.000
    N4203    N        0.57193    0.88900    0.50653    1.000
    Si4204   Si       0.53316    0.86668    0.49801    1.000
    N4205    N        0.68214    0.87988    0.52357    1.000
    N4206    N        0.71949    0.85864    0.57374    1.000
    Si4207   Si       0.64782    0.85974    0.54242    1.000
    Si4208   Si       0.71711    0.85854    0.53117    1.000
    N4209    N        0.65638    0.83484    0.57776    1.000
    Si4210   Si       0.68949    0.83611    0.60738    1.000
    N4211    N        0.64173    0.83305    0.50759    1.000
    N4212    N        0.49526    0.88174    0.66654    1.000
    Si4213   Si       0.52886    0.86745    0.63938    1.000
    N4214    N        0.57770    0.84603    0.68883    1.000
    Si4215   Si       0.57583    0.85312    0.73156    1.000
    Si4216   Si       0.59844    0.87425    0.66173    1.000
    N4217    N        0.60676    0.84090    0.63444    1.000
    N4218    N        0.54083    0.87731    0.74053    1.000
    N4219    N        0.61557    0.87449    0.73621    1.000
    N4220    N        0.56311    0.89065    0.63857    1.000
    N4221    N        0.67851    0.87756    0.62276    1.000
    Si4222   Si       0.70729    0.85260    0.71826    1.000
    N4223    N        0.51148    0.86912    0.79766    1.000
    N4224    N        0.58490    0.86697    0.80540    1.000
    Si4225   Si       0.50412    0.86021    0.75514    1.000
    N4226    N        0.60621    0.83924    0.85661    1.000
    Si4227   Si       0.57892    0.87991    0.84665    1.000
    N4228    N        0.48988    0.87758    0.86994    1.000
    Si4229   Si       0.63452    0.86869    0.82820    1.000
    N4230    N        0.66966    0.86766    0.85470    1.000
    Si4231   Si       0.64508    0.86891    0.76502    1.000
    N4232    N        0.68201    0.84950    0.75308    1.000
    N4233    N        0.64071    0.83511    0.79795    1.000
    N4234    N        0.71280    0.82847    0.81735    1.000
    N4235    N        0.51548    0.86771    0.93194    1.000
    N4236    N        0.56464    0.88191    0.88786    1.000
    Si4237   Si       0.58794    0.84210    0.89584    1.000
    Si4238   Si       0.52292    0.89105    0.89580    1.000
    N4239    N        0.61011    0.86122    0.92769    1.000
    Si4240   Si       0.73819    0.88675    0.88312    1.000
    N4241    N        0.73324    0.83628    0.94986    1.000
    N4242    N        0.63443    0.88426    0.98799    1.000
    Si4243   Si       0.69993    0.85198    0.97346    1.000
    N4244    N        0.72749    0.84269    0.87843    1.000
    Si4245   Si       0.63016    0.84741    0.96461    1.000
    N4246    N        0.52157    0.93384    0.05292    1.000
    N4247    N        0.57378    0.93179    0.01185    1.000
    N4248    N        0.55974    0.93231    0.10872    1.000
    Si4249   Si       0.53782    0.90223    0.02732    1.000
    Si4250   Si       0.59054    0.90424    0.11910    1.000
    N4251    N        0.62602    0.91918    0.05146    1.000
    N4252    N        0.69062    0.92500    0.02081    1.000
    Si4253   Si       0.65465    0.90793    0.08632    1.000
    Si4254   Si       0.72277    0.89821    0.01034    1.000
    N4255    N        0.67815    0.94559    0.08938    1.000
    N4256    N        0.63026    0.92308    0.12060    1.000
    Si4257   Si       0.57005    0.93092    0.18381    1.000
    N4258    N        0.49872    0.90371    0.15848    1.000
    N4259    N        0.53336    0.93576    0.20838    1.000
    N4260    N        0.60731    0.92403    0.20693    1.000
    Si4261   Si       0.50003    0.94194    0.18198    1.000
    Si4262   Si       0.60004    0.89478    0.24014    1.000
    N4263    N        0.57265    0.89251    0.16000    1.000
    Si4264   Si       0.64228    0.92133    0.18023    1.000
    N4265    N        0.67539    0.92623    0.20782    1.000
    Si4266   Si       0.67678    0.89829    0.23938    1.000
    N4267    N        0.56321    0.90514    0.26006    1.000
    Si4268   Si       0.60180    0.92695    0.34591    1.000
    N4269    N        0.49989    0.91476    0.25949    1.000
    Si4270   Si       0.53477    0.93996    0.25046    1.000
    N4271    N        0.51024    0.89475    0.36511    1.000
    N4272    N        0.73612    0.89855    0.33495    1.000
    N4273    N        0.70363    0.90857    0.27031    1.000
    Si4274   Si       0.72571    0.94451    0.25562    1.000
    N4275    N        0.63733    0.89202    0.26098    1.000
    N4276    N        0.56917    0.93802    0.37331    1.000
    Si4277   Si       0.52718    0.93284    0.37148    1.000
    N4278    N        0.51676    0.92161    0.48465    1.000
    Si4279   Si       0.59397    0.91944    0.48394    1.000
    N4280    N        0.52137    0.93974    0.41599    1.000
    N4281    N        0.57730    0.92663    0.44429    1.000
    Si4282   Si       0.53515    0.91362    0.44765    1.000
    N4283    N        0.70155    0.89610    0.45953    1.000
    N4284    N        0.63157    0.89481    0.47860    1.000
    Si4285   Si       0.73017    0.89867    0.37843    1.000
    N4286    N        0.73200    0.93186    0.40850    1.000
    N4287    N        0.63616    0.92615    0.37260    1.000
    Si4288   Si       0.67357    0.90473    0.49014    1.000
    N4289    N        0.55646    0.90845    0.57289    1.000
    Si4290   Si       0.56980    0.92326    0.61136    1.000
    N4291    N        0.49724    0.93589    0.59236    1.000
    Si4292   Si       0.51437    0.89627    0.57154    1.000
    N4293    N        0.61330    0.93255    0.60667    1.000
    Si4294   Si       0.64021    0.92884    0.57392    1.000
    N4295    N        0.68415    0.92640    0.57815    1.000
    N4296    N        0.62312    0.89508    0.55066    1.000
    Si4297   Si       0.70823    0.89471    0.59581    1.000
    N4298    N        0.67152    0.94691    0.49998    1.000
    Si4299   Si       0.54166    0.91935    0.72881    1.000
    N4300    N        0.57524    0.92503    0.70283    1.000
    N4301    N        0.50269    0.93260    0.71654    1.000
    N4302    N        0.63471    0.94342    0.74110    1.000
    Si4303   Si       0.61590    0.91343    0.71479    1.000
    Si4304   Si       0.62787    0.94236    0.64777    1.000
    N4305    N        0.67171    0.94293    0.64602    1.000
    N4306    N        0.62981    0.90227    0.67244    1.000
    Si4307   Si       0.67216    0.90048    0.65930    1.000
    N4308    N        0.69460    0.88588    0.69379    1.000
    N4309    N        0.55190    0.91532    0.83205    1.000
    N4310    N        0.54917    0.92970    0.76928    1.000
    Si4311   Si       0.54960    0.89417    0.79312    1.000
    Si4312   Si       0.61372    0.94641    0.84762    1.000
    N4313    N        0.61620    0.90207    0.85211    1.000
    Si4314   Si       0.64132    0.93873    0.78526    1.000
    N4315    N        0.65040    0.89772    0.79695    1.000
    Si4316   Si       0.59811    0.90103    0.91224    1.000
    N4317    N        0.57850    0.92776    0.93957    1.000
    Si4318   Si       0.55561    0.93966    0.97475    1.000
    N4319    N        0.52228    0.93516    0.89228    1.000
    N4320    N        0.52327    0.90996    0.98526    1.000
    Si4321   Si       0.49241    0.89264    0.95932    1.000
    Si4322   Si       0.73060    0.91484    0.94194    1.000
    N4323    N        0.70463    0.91455    0.88258    1.000
    Si4324   Si       0.66607    0.91318    0.98560    1.000
    N4325    N        0.69679    0.89285    0.96142    1.000
    N4326    N        0.63859    0.91976    0.90756    1.000
    Si4327   Si       0.66091    0.90867    0.87037    1.000
    N4328    N        0.58157    0.97736    0.06610    1.000
    N4329    N        0.51692    0.98901    0.08756    1.000
    Si4330   Si       0.54608    0.95732    0.07861    1.000
    Si4331   Si       0.60116    0.95554    0.03592    1.000
    N4332    N        0.61355    0.98428    0.00553    1.000
    N4333    N        0.73872    0.95951    0.06217    1.000
    N4334    N        0.68118    0.98904    0.02828    1.000
    N4335    N        0.63691    0.99721    0.10469    1.000
    Si4336   Si       0.69629    0.95569    0.05116    1.000
    N4337    N        0.70705    0.00534    0.11209    1.000
    Si4338   Si       0.54910    0.99886    0.15846    1.000
    N4339    N        0.51406    0.97342    0.15517    1.000
    N4340    N        0.57991    0.97090    0.17271    1.000
    N4341    N        0.49898    0.00360    0.24144    1.000
    Si4342   Si       0.48990    0.98854    0.12204    1.000
    Si4343   Si       0.65337    0.96110    0.12232    1.000
    N4344    N        0.70084    0.97549    0.23843    1.000
    N4345    N        0.64907    0.96382    0.16644    1.000
    Si4346   Si       0.61749    0.98458    0.18960    1.000
    N4347    N        0.62976    0.98699    0.23057    1.000
    N4348    N        0.72341    0.96667    0.17305    1.000
    Si4349   Si       0.68233    0.97121    0.19835    1.000
    Si4350   Si       0.71269    0.00577    0.15371    1.000
    Si4351   Si       0.57985    0.98451    0.30273    1.000
    N4352    N        0.54627    0.97248    0.27631    1.000
    N4353    N        0.50190    0.96794    0.36328    1.000
    Si4354   Si       0.52726    0.00364    0.36415    1.000
    Si4355   Si       0.52118    0.00779    0.27703    1.000
    N4356    N        0.49347    0.00724    0.31030    1.000
    N4357    N        0.60817    0.95351    0.31290    1.000
    N4358    N        0.55748    0.00802    0.33297    1.000
    N4359    N        0.73375    0.97169    0.28788    1.000
    N4360    N        0.70825    0.97384    0.35263    1.000
    Si4361   Si       0.70868    0.00219    0.27184    1.000
    N4362    N        0.64797    0.00251    0.36589    1.000
    Si4363   Si       0.68022    0.00425    0.33749    1.000
    N4364    N        0.67119    0.00697    0.29546    1.000
    N4365    N        0.60724    0.97869    0.41198    1.000
    N4366    N        0.53685    0.98732    0.47124    1.000
    N4367    N        0.54891    0.00067    0.40181    1.000
    Si4368   Si       0.56808    0.95864    0.41194    1.000
    Si4369   Si       0.50965    0.96306    0.49567    1.000
    N4370    N        0.67324    0.97288    0.41871    1.000
    N4371    N        0.70555    0.00399    0.46621    1.000
    Si4372   Si       0.71137    0.96904    0.39681    1.000
    Si4373   Si       0.64216    0.96646    0.39075    1.000
    N4374    N        0.64154    0.00805    0.48707    1.000
    Si4375   Si       0.70667    0.97221    0.49323    1.000
    N4376    N        0.52923    0.97831    0.53164    1.000
    Si4377   Si       0.56399    0.99024    0.50846    1.000
    N4378    N        0.52082    0.00156    0.60018    1.000
    Si4379   Si       0.50871    0.00571    0.55875    1.000
    N4380    N        0.59535    0.95823    0.50316    1.000
    Si4381   Si       0.51155    0.96567    0.62204    1.000
    Si4382   Si       0.63255    0.00551    0.57999    1.000
    N4383    N        0.63867    0.97048    0.55541    1.000
    N4384    N        0.71119    0.98761    0.59493    1.000
    Si4385   Si       0.63590    0.97090    0.51226    1.000
    N4386    N        0.71170    0.99037    0.53273    1.000
    Si4387   Si       0.70915    0.95861    0.56216    1.000
    N4388    N        0.65137    0.00256    0.62024    1.000
    N4389    N        0.53912    0.98474    0.69415    1.000
    N4390    N        0.60625    0.97427    0.66321    1.000
    Si4391   Si       0.56715    0.95903    0.67541    1.000
    Si4392   Si       0.49646    0.97235    0.69799    1.000
    N4393    N        0.55128    0.95434    0.63408    1.000
    Si4394   Si       0.68855    0.98268    0.63244    1.000
    Si4395   Si       0.65221    0.98301    0.74693    1.000
    N4396    N        0.72259    0.98574    0.66070    1.000
    N4397    N        0.67655    0.99390    0.71354    1.000
    N4398    N        0.52994    0.98044    0.82387    1.000
    Si4399   Si       0.56375    0.96362    0.79178    1.000
    N4400    N        0.60354    0.95423    0.80560    1.000
    N4401    N        0.56120    0.00142    0.77155    1.000
    Si4402   Si       0.54276    0.95180    0.85698    1.000
    Si4403   Si       0.68070    0.98051    0.82744    1.000
    N4404    N        0.66871    0.97336    0.78529    1.000
    N4405    N        0.71871    0.97777    0.85416    1.000
    N4406    N        0.65864    0.94826    0.84798    1.000
    N4407    N        0.58309    0.96466    0.87208    1.000
    Si4408   Si       0.58653    0.99995    0.97519    1.000
    N4409    N        0.54638    0.98335    0.97694    1.000
    Si4410   Si       0.58367    0.99762    0.89971    1.000
    N4411    N        0.60735    0.99172    0.93613    1.000
    N4412    N        0.65702    0.95077    0.96720    1.000
    Si4413   Si       0.63674    0.95586    0.92938    1.000
    Si4414   Si       0.70072    0.95916    0.88940    1.000
    N4415    N        0.73261    0.99409    0.98634    1.000
    N4416    N        0.72385    0.95628    0.92668    1.000
    Si4417   Si       0.65552    0.98504    0.99339    1.000
    N4418    N        0.66405    0.97976    0.90458    1.000
    Si4419   Si       0.84634    0.02290    0.06433    1.000
    N4420    N        0.81012    0.04437    0.04711    1.000
    Si4421   Si       0.77059    0.05502    0.05948    1.000
    Si4422   Si       0.81558    0.04358    0.00503    1.000
    N4423    N        0.77623    0.06497    0.10120    1.000
    N4424    N        0.86590    0.03283    0.10452    1.000
    N4425    N        0.97044    0.03202    0.01640    1.000
    N4426    N        0.88507    0.03178    0.04667    1.000
    Si4427   Si       0.90221    0.04606    0.08318    1.000
    Si4428   Si       0.96961    0.04986    0.05434    1.000
    N4429    N        0.94214    0.02842    0.08065    1.000
    Si4430   Si       0.88891    0.04782    0.00643    1.000
    N4431    N        0.83777    0.05559    0.22257    1.000
    N4432    N        0.82046    0.03542    0.15213    1.000
    Si4433   Si       0.78339    0.03038    0.13029    1.000
    Si4434   Si       0.85486    0.05844    0.13552    1.000
    N4435    N        0.74768    0.03250    0.15624    1.000
    N4436    N        0.76777    0.06405    0.21408    1.000
    Si4437   Si       0.87526    0.04580    0.20417    1.000
    N4438    N        0.95387    0.02287    0.17169    1.000
    Si4439   Si       0.97895    0.05199    0.15405    1.000
    Si4440   Si       0.94440    0.02265    0.21422    1.000
    N4441    N        0.98089    0.02512    0.23454    1.000
    N4442    N        0.90971    0.04487    0.22873    1.000
    Si4443   Si       0.78806    0.03640    0.31907    1.000
    N4444    N        0.79401    0.03798    0.27578    1.000
    Si4445   Si       0.83327    0.04803    0.26391    1.000
    N4446    N        0.75249    0.01940    0.33509    1.000
    Si4447   Si       0.76104    0.05958    0.25661    1.000
    N4448    N        0.81672    0.01404    0.34253    1.000
    Si4449   Si       0.83931    0.03911    0.37135    1.000
    N4450    N        0.86596    0.02188    0.27261    1.000
    N4451    N        0.91992    0.03673    0.35897    1.000
    Si4452   Si       0.90660    0.03924    0.27215    1.000
    N4453    N        0.93608    0.01140    0.28613    1.000
    N4454    N        0.77918    0.02499    0.44372    1.000
    N4455    N        0.84162    0.03494    0.46514    1.000
    N4456    N        0.85103    0.01374    0.40283    1.000
    Si4457   Si       0.78884    0.06078    0.42322    1.000
    N4458    N        0.76292    0.06484    0.38929    1.000
    N4459    N        0.96622    0.06063    0.47227    1.000
    Si4460   Si       0.94847    0.01878    0.45536    1.000
    Si4461   Si       0.87532    0.01913    0.44110    1.000
    Si4462   Si       0.92851    0.05067    0.40061    1.000
    N4463    N        0.91211    0.04028    0.43898    1.000
    N4464    N        0.82971    0.03850    0.60039    1.000
    Si4465   Si       0.78338    0.03420    0.52794    1.000
    N4466    N        0.76844    0.02041    0.56596    1.000
    N4467    N        0.82106    0.05526    0.53218    1.000
    Si4468   Si       0.84633    0.06381    0.49842    1.000
    N4469    N        0.75648    0.06757    0.51697    1.000
    N4470    N        0.88842    0.05528    0.50717    1.000
    Si4471   Si       0.92967    0.04797    0.57078    1.000
    N4472    N        0.96379    0.04516    0.59747    1.000
    N4473    N        0.89370    0.06203    0.59272    1.000
    Si4474   Si       0.87043    0.03378    0.61627    1.000
    Si4475   Si       0.89466    0.01321    0.51818    1.000
    N4476    N        0.84988    0.06284    0.74095    1.000
    N4477    N        0.81283    0.03775    0.69381    1.000
    Si4478   Si       0.81496    0.05148    0.65126    1.000
    N4479    N        0.85878    0.05771    0.65134    1.000
    N4480    N        0.78271    0.02319    0.63545    1.000
    Si4481   Si       0.80881    0.06266    0.72912    1.000
    Si4482   Si       0.89140    0.04721    0.72839    1.000
    N4483    N        0.87917    0.01172    0.70388    1.000
    N4484    N        0.84949    0.04218    0.80695    1.000
    N4485    N        0.78795    0.04867    0.76410    1.000
    Si4486   Si       0.81752    0.03781    0.83747    1.000
    Si4487   Si       0.75398    0.01945    0.76231    1.000
    N4488    N        0.84067    0.04340    0.87299    1.000
    Si4489   Si       0.94118    0.04002    0.83695    1.000
    N4490    N        0.90256    0.02974    0.76461    1.000
    N4491    N        0.95339    0.06124    0.80114    1.000
    N4492    N        0.90346    0.01986    0.83739    1.000
    Si4493   Si       0.88263    0.01462    0.79844    1.000
    Si4494   Si       0.98363    0.02970    0.78657    1.000
    N4495    N        0.97320    0.01187    0.83943    1.000
    Si4496   Si       0.87506    0.01479    0.87108    1.000
    N4497    N        0.74557    0.02825    0.92742    1.000
    Si4498   Si       0.85124    0.05617    0.91385    1.000
    Si4499   Si       0.78284    0.05034    0.93802    1.000
    N4500    N        0.82253    0.03272    0.93643    1.000
    N4501    N        0.78559    0.06033    0.98091    1.000
    Si4502   Si       0.95317    0.05205    0.98152    1.000
    N4503    N        0.89029    0.03482    0.91249    1.000
    N4504    N        0.95238    0.04169    0.94070    1.000
    N4505    N        0.90166    0.01620    0.98092    1.000
    Si4506   Si       0.92587    0.06211    0.91319    1.000
    N4507    N        0.94459    0.06246    0.87395    1.000
    Si4508   Si       0.84614    0.11221    0.00558    1.000
    N4509    N        0.75245    0.09103    0.03977    1.000
    N4510    N        0.83659    0.09464    0.11571    1.000
    Si4511   Si       0.74786    0.12174    0.07299    1.000
    Si4512   Si       0.77210    0.09688    0.00115    1.000
    N4513    N        0.85761    0.12310    0.04713    1.000
    N4514    N        0.80544    0.12607    0.00501    1.000
    Si4515   Si       0.86597    0.11627    0.09063    1.000
    N4516    N        0.90023    0.08854    0.09344    1.000
    Si4517   Si       0.94150    0.10155    0.09390    1.000
    Si4518   Si       0.94760    0.10602    0.01357    1.000
    N4519    N        0.95209    0.09081    0.05308    1.000
    N4520    N        0.96933    0.07926    0.11944    1.000
    Si4521   Si       0.79290    0.10140    0.12277    1.000
    Si4522   Si       0.74851    0.07075    0.17446    1.000
    N4523    N        0.78587    0.09098    0.16240    1.000
    N4524    N        0.81692    0.11549    0.21973    1.000
    Si4525   Si       0.80679    0.07788    0.20007    1.000
    Si4526   Si       0.85060    0.11278    0.24598    1.000
    Si4527   Si       0.89719    0.11107    0.18041    1.000
    N4528    N        0.93819    0.11899    0.16825    1.000
    N4529    N        0.88733    0.11446    0.22182    1.000
    N4530    N        0.87637    0.07350    0.16985    1.000
    Si4531   Si       0.97908    0.11742    0.18624    1.000
    N4532    N        0.84076    0.08899    0.27955    1.000
    Si4533   Si       0.83363    0.09681    0.32259    1.000
    N4534    N        0.75611    0.09936    0.27260    1.000
    N4535    N        0.79334    0.07851    0.32860    1.000
    Si4536   Si       0.75984    0.10840    0.31402    1.000
    N4537    N        0.86037    0.06915    0.34594    1.000
    N4538    N        0.83176    0.12542    0.35589    1.000
    Si4539   Si       0.90474    0.07409    0.34288    1.000
    Si4540   Si       0.94413    0.10433    0.30211    1.000
    N4541    N        0.93637    0.10516    0.34532    1.000
    N4542    N        0.98412    0.09534    0.29296    1.000
    N4543    N        0.91288    0.07170    0.29959    1.000
    Si4544   Si       0.79385    0.09217    0.37082    1.000
    Si4545   Si       0.75434    0.09016    0.48064    1.000
    N4546    N        0.79061    0.09266    0.45579    1.000
    Si4547   Si       0.85595    0.10388    0.38870    1.000
    N4548    N        0.82252    0.07265    0.39477    1.000
    Si4549   Si       0.82179    0.12083    0.46212    1.000
    N4550    N        0.84958    0.12285    0.42761    1.000
    Si4551   Si       0.97654    0.10371    0.47388    1.000
    N4552    N        0.89799    0.08630    0.39212    1.000
    Si4553   Si       0.92714    0.11860    0.38599    1.000
    Si4554   Si       0.99010    0.11319    0.40180    1.000
    N4555    N        0.96430    0.07769    0.40081    1.000
    N4556    N        0.93457    0.11469    0.48024    1.000
    N4557    N        0.84318    0.10755    0.57454    1.000
    N4558    N        0.77821    0.08374    0.58534    1.000
    N4559    N        0.84179    0.10748    0.49791    1.000
    Si4560   Si       0.74458    0.08066    0.55747    1.000
    Si4561   Si       0.81797    0.07115    0.57379    1.000
    Si4562   Si       0.98696    0.08198    0.53863    1.000
    Si4563   Si       0.88222    0.10323    0.59653    1.000
    N4564    N        0.94358    0.07244    0.53759    1.000
    Si4565   Si       0.92699    0.07471    0.49731    1.000
    Si4566   Si       0.98848    0.08265    0.60755    1.000
    Si4567   Si       0.76930    0.10408    0.62180    1.000
    Si4568   Si       0.80675    0.11874    0.68416    1.000
    N4569    N        0.79106    0.10019    0.71998    1.000
    N4570    N        0.79945    0.09091    0.65093    1.000
    Si4571   Si       0.75616    0.12055    0.74005    1.000
    N4572    N        0.90117    0.08372    0.70641    1.000
    Si4573   Si       0.90520    0.11343    0.73683    1.000
    N4574    N        0.89292    0.11458    0.63637    1.000
    Si4575   Si       0.87516    0.09537    0.67146    1.000
    N4576    N        0.96413    0.11092    0.62787    1.000
    N4577    N        0.94940    0.11227    0.74748    1.000
    N4578    N        0.82289    0.10603    0.78453    1.000
    Si4579   Si       0.78959    0.08202    0.79029    1.000
    N4580    N        0.75273    0.10499    0.78182    1.000
    Si4581   Si       0.85498    0.07834    0.78202    1.000
    Si4582   Si       0.76153    0.07971    0.86573    1.000
    N4583    N        0.75431    0.12056    0.84914    1.000
    N4584    N        0.78875    0.06789    0.83197    1.000
    Si4585   Si       0.94297    0.10167    0.79036    1.000
    N4586    N        0.89169    0.10396    0.77931    1.000
    N4587    N        0.77972    0.08156    0.90739    1.000
    N4588    N        0.84678    0.09960    0.92348    1.000
    Si4589   Si       0.80786    0.11523    0.90940    1.000
    Si4590   Si       0.74671    0.10991    0.92776    1.000
    N4591    N        0.85183    0.06964    0.99600    1.000
    N4592    N        0.97849    0.08837    0.98584    1.000
    N4593    N        0.91905    0.07792    0.99609    1.000
    Si4594   Si       0.87911    0.12418    0.93817    1.000
    N4595    N        0.91393    0.10478    0.91970    1.000
    Si4596   Si       0.98393    0.08439    0.87455    1.000
    N4597    N        0.76268    0.15673    0.05359    1.000
    Si4598   Si       0.79037    0.16426    0.01993    1.000
    Si4599   Si       0.85514    0.16643    0.05504    1.000
    N4600    N        0.85338    0.15812    0.09713    1.000
    N4601    N        0.75973    0.13025    0.11584    1.000
    N4602    N        0.93433    0.14707    0.01536    1.000
    Si4603   Si       0.93360    0.16361    0.05712    1.000
    N4604    N        0.93404    0.14461    0.09638    1.000
    N4605    N        0.89336    0.18320    0.04081    1.000
    Si4606   Si       0.90027    0.16855    0.99826    1.000
    N4607    N        0.80858    0.15688    0.15800    1.000
    Si4608   Si       0.79712    0.14833    0.20004    1.000
    Si4609   Si       0.77124    0.16628    0.13825    1.000
    N4610    N        0.75364    0.14224    0.21163    1.000
    Si4611   Si       0.84817    0.16699    0.13972    1.000
    N4612    N        0.81670    0.18088    0.22136    1.000
    N4613    N        0.98471    0.13297    0.22781    1.000
    Si4614   Si       0.92637    0.15198    0.14006    1.000
    N4615    N        0.92681    0.18175    0.23599    1.000
    Si4616   Si       0.96901    0.17334    0.23724    1.000
    N4617    N        0.88375    0.14519    0.15238    1.000
    N4618    N        0.77914    0.14744    0.31769    1.000
    Si4619   Si       0.79859    0.15415    0.35626    1.000
    N4620    N        0.86431    0.15212    0.26260    1.000
    N4621    N        0.92609    0.13930    0.28562    1.000
    Si4622   Si       0.97318    0.17561    0.35778    1.000
    N4623    N        0.93482    0.17810    0.34104    1.000
    N4624    N        0.97632    0.17948    0.28003    1.000
    Si4625   Si       0.93559    0.18007    0.29747    1.000
    Si4626   Si       0.90393    0.14609    0.24719    1.000
    N4627    N        0.80798    0.16226    0.46942    1.000
    N4628    N        0.77446    0.12992    0.38297    1.000
    N4629    N        0.74578    0.13161    0.48670    1.000
    Si4630   Si       0.96406    0.18440    0.42169    1.000
    N4631    N        0.95795    0.18457    0.46356    1.000
    Si4632   Si       0.87220    0.15979    0.42857    1.000
    N4633    N        0.89036    0.16980    0.46552    1.000
    N4634    N        0.89686    0.15176    0.39290    1.000
    Si4635   Si       0.92874    0.15913    0.48362    1.000
    N4636    N        0.96628    0.14889    0.39275    1.000
    N4637    N        0.77708    0.14566    0.61138    1.000
    Si4638   Si       0.76439    0.15065    0.56906    1.000
    N4639    N        0.79057    0.14484    0.53548    1.000
    N4640    N        0.86138    0.16293    0.53211    1.000
    Si4641   Si       0.77473    0.16152    0.49846    1.000
    Si4642   Si       0.83317    0.12996    0.53635    1.000
    Si4643   Si       0.89774    0.16369    0.55690    1.000
    N4644    N        0.92156    0.17962    0.52189    1.000
    N4645    N        0.91277    0.13019    0.57882    1.000
    Si4646   Si       0.92896    0.13586    0.62028    1.000
    Si4647   Si       0.78439    0.17632    0.63873    1.000
    N4648    N        0.78616    0.15636    0.67839    1.000
    Si4649   Si       0.75546    0.18047    0.69799    1.000
    N4650    N        0.75364    0.16274    0.74084    1.000
    Si4651   Si       0.85899    0.16396    0.70907    1.000
    N4652    N        0.82882    0.16850    0.74233    1.000
    N4653    N        0.85004    0.12706    0.68890    1.000
    Si4654   Si       0.93390    0.18316    0.72089    1.000
    Si4655   Si       0.98029    0.17911    0.65990    1.000
    N4656    N        0.96307    0.16346    0.69761    1.000
    Si4657   Si       0.97973    0.13154    0.72242    1.000
    N4658    N        0.94863    0.17456    0.62704    1.000
    N4659    N        0.89959    0.15601    0.72423    1.000
    Si4660   Si       0.82525    0.14917    0.78072    1.000
    Si4661   Si       0.78449    0.15081    0.84888    1.000
    N4662    N        0.79343    0.16501    0.80788    1.000
    N4663    N        0.86061    0.16207    0.80333    1.000
    Si4664   Si       0.95424    0.16702    0.83633    1.000
    N4665    N        0.93387    0.13756    0.81071    1.000
    Si4666   Si       0.89140    0.13308    0.81376    1.000
    N4667    N        0.88720    0.13260    0.85611    1.000
    Si4668   Si       0.85632    0.16040    0.87231    1.000
    N4669    N        0.81872    0.13861    0.87250    1.000
    N4670    N        0.77732    0.14116    0.92765    1.000
    Si4671   Si       0.76274    0.17712    0.94566    1.000
    N4672    N        0.75895    0.17252    0.98901    1.000
    N4673    N        0.87319    0.13862    0.97934    1.000
    Si4674   Si       0.91545    0.13647    0.88955    1.000
    N4675    N        0.95251    0.15242    0.87783    1.000
    N4676    N        0.88374    0.16251    0.91293    1.000
    N4677    N        0.98714    0.17897    0.93200    1.000
    Si4678   Si       0.82913    0.23142    0.04632    1.000
    N4679    N        0.76974    0.19994    0.11069    1.000
    N4680    N        0.82030    0.23314    0.08854    1.000
    N4681    N        0.74743    0.21964    0.03885    1.000
    Si4682   Si       0.74916    0.19216    0.07439    1.000
    Si4683   Si       0.86151    0.23091    0.10246    1.000
    Si4684   Si       0.78519    0.24012    0.11206    1.000
    N4685    N        0.82496    0.18784    0.03149    1.000
    Si4686   Si       0.98504    0.22709    0.07557    1.000
    Si4687   Si       0.91025    0.22161    0.05485    1.000
    N4688    N        0.90181    0.21659    0.09970    1.000
    N4689    N        0.95274    0.20295    0.06171    1.000
    N4690    N        0.96991    0.24305    0.11425    1.000
    N4691    N        0.87156    0.24641    0.05611    1.000
    N4692    N        0.76488    0.20621    0.18870    1.000
    Si4693   Si       0.78620    0.21050    0.22607    1.000
    N4694    N        0.85517    0.21032    0.14428    1.000
    N4695    N        0.86859    0.21931    0.24189    1.000
    Si4696   Si       0.93404    0.22066    0.12636    1.000
    N4697    N        0.95065    0.18563    0.14967    1.000
    Si4698   Si       0.76933    0.22525    0.35494    1.000
    N4699    N        0.81809    0.19885    0.28909    1.000
    N4700    N        0.75986    0.19540    0.25471    1.000
    N4701    N        0.74921    0.21116    0.31779    1.000
    N4702    N        0.80169    0.19523    0.36606    1.000
    Si4703   Si       0.84176    0.18773    0.25563    1.000
    Si4704   Si       0.77678    0.18560    0.29522    1.000
    N4705    N        0.87544    0.21106    0.35577    1.000
    N4706    N        0.91523    0.21879    0.29297    1.000
    N4707    N        0.98496    0.21750    0.35663    1.000
    Si4708   Si       0.89444    0.23817    0.32763    1.000
    Si4709   Si       0.91182    0.22017    0.24776    1.000
    N4710    N        0.79265    0.22780    0.44804    1.000
    N4711    N        0.84473    0.19162    0.41949    1.000
    Si4712   Si       0.75783    0.23521    0.47342    1.000
    Si4713   Si       0.84046    0.21361    0.38190    1.000
    Si4714   Si       0.82436    0.19971    0.45498    1.000
    N4715    N        0.84987    0.21925    0.48775    1.000
    N4716    N        0.93363    0.20912    0.40106    1.000
    Si4717   Si       0.90880    0.18756    0.37317    1.000
    Si4718   Si       0.97806    0.21640    0.48393    1.000
    Si4719   Si       0.95471    0.24076    0.37937    1.000
    Si4720   Si       0.85142    0.20934    0.59959    1.000
    N4721    N        0.82962    0.23225    0.57193    1.000
    Si4722   Si       0.74259    0.21741    0.53853    1.000
    N4723    N        0.75714    0.20152    0.50129    1.000
    N4724    N        0.74587    0.18921    0.57249    1.000
    Si4725   Si       0.92615    0.20636    0.60764    1.000
    Si4726   Si       0.95153    0.20909    0.53528    1.000
    N4727    N        0.94021    0.22541    0.57193    1.000
    N4728    N        0.94534    0.23779    0.50451    1.000
    Si4729   Si       0.87829    0.19072    0.50253    1.000
    N4730    N        0.88940    0.19383    0.58862    1.000
    N4731    N        0.75209    0.20110    0.64993    1.000
    Si4732   Si       0.81869    0.21142    0.72846    1.000
    Si4733   Si       0.83590    0.21904    0.66009    1.000
    N4734    N        0.78040    0.21556    0.71019    1.000
    N4735    N        0.85450    0.20819    0.69916    1.000
    N4736    N        0.82245    0.19200    0.62797    1.000
    N4737    N        0.86776    0.23373    0.63317    1.000
    Si4738   Si       0.88904    0.24087    0.70426    1.000
    N4739    N        0.92739    0.22082    0.69806    1.000
    N4740    N        0.98797    0.22221    0.66377    1.000
    N4741    N        0.93489    0.24291    0.62921    1.000
    N4742    N        0.82039    0.22416    0.80587    1.000
    Si4743   Si       0.78077    0.20938    0.81894    1.000
    N4744    N        0.85396    0.20039    0.85843    1.000
    N4745    N        0.74758    0.21888    0.79089    1.000
    Si4746   Si       0.85705    0.20318    0.81500    1.000
    N4747    N        0.76942    0.19084    0.85700    1.000
    N4748    N        0.93336    0.20440    0.83445    1.000
    N4749    N        0.88474    0.22351    0.79029    1.000
    Si4750   Si       0.92823    0.21874    0.79335    1.000
    Si4751   Si       0.93355    0.23490    0.86489    1.000
    N4752    N        0.94931    0.19146    0.76435    1.000
    N4753    N        0.79408    0.20637    0.94733    1.000
    Si4754   Si       0.84396    0.23827    0.88149    1.000
    N4755    N        0.86741    0.23405    0.91912    1.000
    N4756    N        0.93361    0.21796    0.90397    1.000
    Si4757   Si       0.92630    0.23965    0.97895    1.000
    Si4758   Si       0.97328    0.21767    0.92497    1.000
    N4759    N        0.90901    0.20065    0.97009    1.000
    Si4760   Si       0.89791    0.20230    0.92658    1.000
    N4761    N        0.96451    0.24394    0.96006    1.000
    Si4762   Si       0.76206    0.26063    0.04360    1.000
    N4763    N        0.76337    0.26978    0.08609    1.000
    N4764    N        0.80022    0.25684    0.02596    1.000
    Si4765   Si       0.94569    0.27846    0.04397    1.000
    Si4766   Si       0.87870    0.28930    0.05808    1.000
    N4767    N        0.92005    0.29234    0.07674    1.000
    N4768    N        0.98575    0.26122    0.04947    1.000
    N4769    N        0.92644    0.24806    0.02151    1.000
    N4770    N        0.86512    0.27154    0.12232    1.000
    N4771    N        0.74447    0.26667    0.20736    1.000
    Si4772   Si       0.81306    0.28819    0.17233    1.000
    Si4773   Si       0.84836    0.25841    0.23168    1.000
    Si4774   Si       0.77642    0.27642    0.23320    1.000
    N4775    N        0.85044    0.27006    0.18989    1.000
    N4776    N        0.78636    0.26102    0.15078    1.000
    N4777    N        0.80663    0.24662    0.23389    1.000
    Si4778   Si       0.75015    0.24416    0.17108    1.000
    Si4779   Si       0.93878    0.26699    0.18734    1.000
    N4780    N        0.92959    0.25207    0.22711    1.000
    N4781    N        0.98203    0.26316    0.18371    1.000
    Si4782   Si       0.91296    0.29345    0.23889    1.000
    Si4783   Si       0.87307    0.24803    0.16079    1.000
    N4784    N        0.91684    0.24454    0.15791    1.000
    N4785    N        0.78483    0.26411    0.34348    1.000
    Si4786   Si       0.84927    0.28561    0.36244    1.000
    N4787    N        0.76488    0.28910    0.27191    1.000
    Si4788   Si       0.78042    0.29792    0.36938    1.000
    N4789    N        0.86518    0.27063    0.32470    1.000
    N4790    N        0.87312    0.28725    0.25462    1.000
    N4791    N        0.92591    0.25695    0.35259    1.000
    Si4792   Si       0.92069    0.30046    0.35409    1.000
    Si4793   Si       0.87236    0.30444    0.29589    1.000
    N4794    N        0.83510    0.25577    0.39079    1.000
    Si4795   Si       0.80788    0.26300    0.42576    1.000
    N4796    N        0.77314    0.28244    0.41071    1.000
    Si4797   Si       0.84614    0.26277    0.49382    1.000
    N4798    N        0.83479    0.28127    0.45437    1.000
    N4799    N        0.74965    0.27409    0.48853    1.000
    N4800    N        0.97579    0.26716    0.40715    1.000
    N4801    N        0.81262    0.27623    0.51910    1.000
    Si4802   Si       0.80171    0.26150    0.55872    1.000
    N4803    N        0.75790    0.25422    0.55221    1.000
    N4804    N        0.79756    0.29344    0.58864    1.000
    Si4805   Si       0.77958    0.30189    0.50414    1.000
    Si4806   Si       0.93971    0.26720    0.58786    1.000
    Si4807   Si       0.92531    0.27402    0.51381    1.000
    N4808    N        0.92810    0.29135    0.55131    1.000
    N4809    N        0.98179    0.27678    0.58625    1.000
    N4810    N        0.88203    0.28312    0.50511    1.000
    N4811    N        0.90990    0.29843    0.60876    1.000
    Si4812   Si       0.80590    0.28554    0.63094    1.000
    N4813    N        0.77858    0.28170    0.71196    1.000
    N4814    N        0.80561    0.25014    0.65633    1.000
    Si4815   Si       0.76992    0.24922    0.68321    1.000
    N4816    N        0.83254    0.24979    0.74143    1.000
    Si4817   Si       0.80589    0.28379    0.74493    1.000
    Si4818   Si       0.94914    0.24290    0.66835    1.000
    N4819    N        0.95927    0.28677    0.67572    1.000
    N4820    N        0.97752    0.28209    0.73926    1.000
    N4821    N        0.89315    0.27419    0.67679    1.000
    N4822    N        0.90162    0.26424    0.74089    1.000
    Si4823   Si       0.88157    0.27414    0.63458    1.000
    N4824    N        0.78525    0.28724    0.78425    1.000
    Si4825   Si       0.81377    0.26826    0.81602    1.000
    N4826    N        0.84178    0.27360    0.85444    1.000
    N4827    N        0.77448    0.25271    0.83558    1.000
    N4828    N        0.85224    0.28462    0.79330    1.000
    Si4829   Si       0.74275    0.26265    0.80490    1.000
    Si4830   Si       0.86679    0.25419    0.76645    1.000
    Si4831   Si       0.87740    0.28657    0.82892    1.000
    N4832    N        0.91120    0.26852    0.84437    1.000
    N4833    N        0.97047    0.26004    0.86026    1.000
    Si4834   Si       0.94843    0.28339    0.82339    1.000
    N4835    N        0.95712    0.25259    0.79152    1.000
    Si4836   Si       0.93545    0.29194    0.75125    1.000
    Si4837   Si       0.80068    0.24817    0.94464    1.000
    N4838    N        0.77380    0.27446    0.96479    1.000
    N4839    N        0.83338    0.26607    0.96770    1.000
    Si4840   Si       0.77109    0.26079    0.87844    1.000
    N4841    N        0.80527    0.25014    0.90091    1.000
    N4842    N        0.75364    0.29769    0.88219    1.000
    Si4843   Si       0.80626    0.28482    0.99356    1.000
    Si4844   Si       0.86654    0.27181    0.94039    1.000
    N4845    N        0.90322    0.27300    0.96296    1.000
    Si4846   Si       0.82778    0.34215    0.04310    1.000
    N4847    N        0.80853    0.32484    0.00564    1.000
    Si4848   Si       0.85340    0.31376    0.11676    1.000
    N4849    N        0.84389    0.31440    0.07405    1.000
    N4850    N        0.74826    0.33746    0.10201    1.000
    Si4851   Si       0.92749    0.32562    0.10690    1.000
    N4852    N        0.94270    0.31432    0.01807    1.000
    Si4853   Si       0.95128    0.35293    0.03646    1.000
    N4854    N        0.94584    0.35361    0.08018    1.000
    N4855    N        0.88683    0.33929    0.11566    1.000
    N4856    N        0.87627    0.30693    0.01897    1.000
    Si4857   Si       0.76237    0.34075    0.20356    1.000
    N4858    N        0.82358    0.32106    0.14501    1.000
    N4859    N        0.79323    0.30825    0.20540    1.000
    N4860    N        0.76688    0.35795    0.16246    1.000
    Si4861   Si       0.81258    0.36160    0.15895    1.000
    N4862    N        0.94758    0.33928    0.14599    1.000
    N4863    N        0.91863    0.30488    0.19570    1.000
    Si4864   Si       0.92444    0.34472    0.18125    1.000
    Si4865   Si       0.98449    0.36506    0.14101    1.000
    N4866    N        0.84811    0.34015    0.30155    1.000
    N4867    N        0.81818    0.31631    0.36033    1.000
    Si4868   Si       0.82529    0.35158    0.33669    1.000
    N4869    N        0.74978    0.32540    0.36601    1.000
    Si4870   Si       0.74944    0.35720    0.33745    1.000
    Si4871   Si       0.93453    0.34191    0.28509    1.000
    N4872    N        0.91077    0.31635    0.31438    1.000
    N4873    N        0.95805    0.31869    0.36379    1.000
    N4874    N        0.94690    0.30910    0.25934    1.000
    Si4875   Si       0.96609    0.35705    0.34247    1.000
    N4876    N        0.96908    0.36237    0.29738    1.000
    N4877    N        0.83320    0.34991    0.42332    1.000
    Si4878   Si       0.83777    0.32485    0.45754    1.000
    N4879    N        0.80265    0.33236    0.48161    1.000
    N4880    N        0.93930    0.30737    0.48742    1.000
    Si4881   Si       0.86643    0.34898    0.39613    1.000
    N4882    N        0.88358    0.31020    0.37780    1.000
    Si4883   Si       0.96383    0.33563    0.46683    1.000
    N4884    N        0.98065    0.33652    0.42635    1.000
    N4885    N        0.87373    0.34292    0.47129    1.000
    Si4886   Si       0.98247    0.30747    0.39620    1.000
    N4887    N        0.76114    0.32287    0.53875    1.000
    Si4888   Si       0.79301    0.33398    0.57019    1.000
    N4889    N        0.76879    0.35533    0.59942    1.000
    N4890    N        0.82019    0.35390    0.54494    1.000
    Si4891   Si       0.74355    0.31910    0.61627    1.000
    Si4892   Si       0.91110    0.32760    0.57352    1.000
    N4893    N        0.87456    0.35029    0.58814    1.000
    N4894    N        0.90135    0.35588    0.53217    1.000
    Si4895   Si       0.89944    0.32395    0.50041    1.000
    N4896    N        0.94210    0.35727    0.57932    1.000
    N4897    N        0.79437    0.34756    0.68844    1.000
    Si4898   Si       0.76303    0.31602    0.68674    1.000
    Si4899   Si       0.80895    0.35161    0.72709    1.000
    N4900    N        0.83059    0.31889    0.74323    1.000
    Si4901   Si       0.86323    0.34049    0.62785    1.000
    N4902    N        0.84605    0.29995    0.63254    1.000
    N4903    N        0.76702    0.30157    0.64686    1.000
    Si4904   Si       0.91985    0.30880    0.68042    1.000
    N4905    N        0.89349    0.34017    0.66087    1.000
    N4906    N        0.93292    0.32676    0.72092    1.000
    N4907    N        0.81196    0.34343    0.80514    1.000
    Si4908   Si       0.77374    0.32962    0.78857    1.000
    Si4909   Si       0.84586    0.32725    0.78258    1.000
    N4910    N        0.77384    0.35255    0.75150    1.000
    N4911    N        0.87379    0.32640    0.84595    1.000
    Si4912   Si       0.91627    0.35057    0.79233    1.000
    N4913    N        0.97506    0.31778    0.83522    1.000
    Si4914   Si       0.96183    0.35664    0.84900    1.000
    N4915    N        0.87733    0.35344    0.77171    1.000
    N4916    N        0.92594    0.30798    0.79083    1.000
    Si4917   Si       0.84557    0.31231    0.87570    1.000
    N4918    N        0.82273    0.34789    0.87700    1.000
    N4919    N        0.86138    0.30676    0.91460    1.000
    N4920    N        0.97966    0.35090    0.96337    1.000
    Si4921   Si       0.90761    0.30760    0.99034    1.000
    N4922    N        0.90629    0.34094    0.95924    1.000
    N4923    N        0.96338    0.35769    0.89422    1.000
    Si4924   Si       0.87472    0.34414    0.93076    1.000
    Si4925   Si       0.81166    0.39637    0.09557    1.000
    N4926    N        0.83906    0.37960    0.01911    1.000
    N4927    N        0.76959    0.40455    0.11073    1.000
    Si4928   Si       0.75634    0.37359    0.08137    1.000
    N4929    N        0.79949    0.36447    0.06852    1.000
    Si4930   Si       0.84549    0.41758    0.03484    1.000
    Si4931   Si       0.73937    0.40305    0.01128    1.000
    N4932    N        0.92916    0.37908    0.01047    1.000
    Si4933   Si       0.94463    0.39709    0.09526    1.000
    N4934    N        0.90579    0.40715    0.10880    1.000
    N4935    N        0.95322    0.41634    0.05799    1.000
    Si4936   Si       0.92416    0.41877    0.02641    1.000
    N4937    N        0.83530    0.38522    0.12953    1.000
    Si4938   Si       0.80460    0.39463    0.23115    1.000
    N4939    N        0.82489    0.38067    0.19518    1.000
    N4940    N        0.76917    0.36851    0.23462    1.000
    Si4941   Si       0.86601    0.40118    0.19507    1.000
    N4942    N        0.89075    0.37237    0.17150    1.000
    Si4943   Si       0.87795    0.37873    0.12815    1.000
    Si4944   Si       0.92855    0.39531    0.24033    1.000
    N4945    N        0.97337    0.40360    0.12673    1.000
    N4946    N        0.89702    0.41937    0.22043    1.000
    N4947    N        0.94908    0.36832    0.21065    1.000
    N4948    N        0.78927    0.37775    0.33407    1.000
    N4949    N        0.75719    0.41142    0.28461    1.000
    N4950    N        0.85084    0.37464    0.36403    1.000
    N4951    N        0.83680    0.39750    0.25957    1.000
    Si4952   Si       0.78018    0.41981    0.32230    1.000
    Si4953   Si       0.86608    0.37658    0.28219    1.000
    N4954    N        0.93177    0.38371    0.35034    1.000
    N4955    N        0.87452    0.41447    0.30741    1.000
    N4956    N        0.90688    0.36983    0.26781    1.000
    N4957    N        0.95900    0.41956    0.26091    1.000
    Si4958   Si       0.90945    0.41672    0.33291    1.000
    Si4959   Si       0.81180    0.38663    0.43871    1.000
    N4960    N        0.81941    0.39647    0.47985    1.000
    N4961    N        0.76967    0.37947    0.43610    1.000
    Si4962   Si       0.85180    0.41623    0.37706    1.000
    N4963    N        0.82936    0.41957    0.41825    1.000
    N4964    N        0.93758    0.37046    0.47019    1.000
    N4965    N        0.89868    0.37353    0.41440    1.000
    Si4966   Si       0.89820    0.37735    0.45757    1.000
    Si4967   Si       0.92373    0.39927    0.38941    1.000
    Si4968   Si       0.96426    0.40458    0.48057    1.000
    N4969    N        0.88612    0.42016    0.46815    1.000
    N4970    N        0.76368    0.38596    0.51934    1.000
    Si4971   Si       0.80133    0.36849    0.50714    1.000
    N4972    N        0.85751    0.40791    0.53228    1.000
    Si4973   Si       0.86184    0.36684    0.54968    1.000
    N4974    N        0.96751    0.39591    0.52365    1.000
    Si4975   Si       0.93171    0.38473    0.54598    1.000
    Si4976   Si       0.96248    0.37587    0.61194    1.000
    N4977    N        0.91510    0.42005    0.56256    1.000
    Si4978   Si       0.74545    0.38171    0.62525    1.000
    Si4979   Si       0.84821    0.40951    0.63275    1.000
    N4980    N        0.83312    0.36856    0.63745    1.000
    Si4981   Si       0.80193    0.38388    0.66433    1.000
    N4982    N        0.83453    0.38822    0.72526    1.000
    N4983    N        0.76177    0.39754    0.66161    1.000
    Si4984   Si       0.93999    0.36742    0.72777    1.000
    N4985    N        0.94916    0.37090    0.65410    1.000
    Si4986   Si       0.98869    0.37231    0.67184    1.000
    Si4987   Si       0.87449    0.38558    0.74245    1.000
    N4988    N        0.90283    0.38514    0.71099    1.000
    N4989    N        0.88796    0.40972    0.64407    1.000
    N4990    N        0.97564    0.38909    0.71449    1.000
    Si4991   Si       0.90852    0.38052    0.66807    1.000
    N4992    N        0.78804    0.39835    0.84433    1.000
    Si4993   Si       0.82064    0.36959    0.83745    1.000
    N4994    N        0.74573    0.39939    0.79135    1.000
    N4995    N        0.85903    0.39293    0.83090    1.000
    Si4996   Si       0.74835    0.38846    0.74749    1.000
    N4997    N        0.81403    0.41756    0.78492    1.000
    N4998    N        0.93860    0.37930    0.76885    1.000
    Si4999   Si       0.88624    0.36618    0.85467    1.000
    Si5000   Si       0.95818    0.41976    0.77160    1.000
    N5001    N        0.98504    0.39173    0.83841    1.000
    N5002    N        0.92441    0.36675    0.83229    1.000
    Si5003   Si       0.82013    0.37470    0.91277    1.000
    N5004    N        0.77088    0.38000    0.98212    1.000
    Si5005   Si       0.75052    0.38081    0.94361    1.000
    N5006    N        0.77931    0.38646    0.91213    1.000
    N5007    N        0.84152    0.41015    0.90269    1.000
    Si5008   Si       0.75987    0.39903    0.87598    1.000
    Si5009   Si       0.81348    0.36281    0.98455    1.000
    N5010    N        0.83596    0.35794    0.94820    1.000
    N5011    N        0.89577    0.36700    0.89826    1.000
    N5012    N        0.94013    0.40150    0.94259    1.000
    Si5013   Si       0.94052    0.36707    0.96963    1.000
    Si5014   Si       0.93496    0.38932    0.90155    1.000
    Si5015   Si       0.79316    0.46167    0.07862    1.000
    N5016    N        0.82048    0.43035    0.07072    1.000
    N5017    N        0.82918    0.44543    0.00646    1.000
    N5018    N        0.75878    0.46863    0.10775    1.000
    Si5019   Si       0.79028    0.46401    0.00806    1.000
    N5020    N        0.75119    0.44383    0.00473    1.000
    N5021    N        0.87044    0.46471    0.11290    1.000
    Si5022   Si       0.89880    0.44551    0.08713    1.000
    N5023    N        0.88714    0.42719    0.04782    1.000
    N5024    N        0.93087    0.47405    0.08368    1.000
    Si5025   Si       0.98845    0.44067    0.04860    1.000
    N5026    N        0.93750    0.44816    0.99658    1.000
    N5027    N        0.84779    0.43957    0.18313    1.000
    N5028    N        0.79333    0.43795    0.23052    1.000
    N5029    N        0.78498    0.45629    0.16460    1.000
    Si5030   Si       0.81160    0.46223    0.19767    1.000
    Si5031   Si       0.75629    0.43596    0.13691    1.000
    N5032    N        0.98114    0.46319    0.21244    1.000
    N5033    N        0.89825    0.47732    0.18245    1.000
    Si5034   Si       0.86554    0.46674    0.15618    1.000
    N5035    N        0.97291    0.47462    0.13739    1.000
    Si5036   Si       0.89292    0.46225    0.22269    1.000
    N5037    N        0.80763    0.44660    0.29763    1.000
    Si5038   Si       0.84514    0.43452    0.27735    1.000
    N5039    N        0.75321    0.44569    0.34371    1.000
    Si5040   Si       0.77545    0.44911    0.26831    1.000
    N5041    N        0.82697    0.45050    0.36408    1.000
    Si5042   Si       0.82242    0.47523    0.33058    1.000
    N5043    N        0.85850    0.46529    0.24883    1.000
    Si5044   Si       0.76310    0.48027    0.36671    1.000
    N5045    N        0.74293    0.47696    0.25872    1.000
    N5046    N        0.93572    0.44949    0.32974    1.000
    Si5047   Si       0.96265    0.46338    0.25135    1.000
    N5048    N        0.92445    0.48355    0.24536    1.000
    N5049    N        0.76650    0.44932    0.48102    1.000
    Si5050   Si       0.81858    0.46119    0.40559    1.000
    N5051    N        0.77669    0.46951    0.40791    1.000
    Si5052   Si       0.85092    0.42414    0.49337    1.000
    Si5053   Si       0.75765    0.47472    0.44798    1.000
    N5054    N        0.89445    0.42855    0.37366    1.000
    Si5055   Si       0.91067    0.45541    0.46455    1.000
    N5056    N        0.95101    0.44687    0.48292    1.000
    Si5057   Si       0.92551    0.46467    0.38344    1.000
    N5058    N        0.91020    0.47506    0.42591    1.000
    N5059    N        0.95438    0.43129    0.39753    1.000
    Si5060   Si       0.80535    0.45390    0.58162    1.000
    N5061    N        0.78398    0.44718    0.54190    1.000
    N5062    N        0.84162    0.43221    0.59512    1.000
    N5063    N        0.77636    0.44825    0.61330    1.000
    Si5064   Si       0.75169    0.42691    0.51487    1.000
    Si5065   Si       0.79227    0.47393    0.50617    1.000
    N5066    N        0.83376    0.46411    0.49906    1.000
    N5067    N        0.97330    0.46116    0.55051    1.000
    Si5068   Si       0.87440    0.43374    0.56481    1.000
    Si5069   Si       0.94492    0.44693    0.58114    1.000
    Si5070   Si       0.97778    0.47166    0.50621    1.000
    N5071    N        0.87698    0.47641    0.55187    1.000
    N5072    N        0.95935    0.41938    0.61073    1.000
    N5073    N        0.82193    0.46235    0.73124    1.000
    Si5074   Si       0.79556    0.45877    0.65120    1.000
    N5075    N        0.76566    0.46353    0.68166    1.000
    N5076    N        0.82046    0.42454    0.66248    1.000
    Si5077   Si       0.77975    0.47269    0.72350    1.000
    N5078    N        0.77235    0.42165    0.72941    1.000
    Si5079   Si       0.74192    0.42166    0.69254    1.000
    Si5080   Si       0.81534    0.42127    0.74237    1.000
    Si5081   Si       0.96194    0.46759    0.71300    1.000
    Si5082   Si       0.98025    0.43975    0.64405    1.000
    N5083    N        0.93893    0.44520    0.74157    1.000
    N5084    N        0.95305    0.46188    0.67017    1.000
    N5085    N        0.76452    0.46077    0.81674    1.000
    Si5086   Si       0.76279    0.47155    0.85799    1.000
    N5087    N        0.85619    0.46171    0.82137    1.000
    Si5088   Si       0.85312    0.42471    0.80186    1.000
    Si5089   Si       0.84362    0.47596    0.86153    1.000
    Si5090   Si       0.77788    0.41993    0.80772    1.000
    Si5091   Si       0.96909    0.43048    0.84611    1.000
    N5092    N        0.94823    0.43751    0.80892    1.000
    N5093    N        0.87385    0.42611    0.76275    1.000
    Si5094   Si       0.89840    0.45926    0.74943    1.000
    Si5095   Si       0.93592    0.47991    0.81157    1.000
    N5096    N        0.74332    0.43938    0.87991    1.000
    N5097    N        0.82725    0.46225    0.94036    1.000
    Si5098   Si       0.85233    0.46670    0.97558    1.000
    Si5099   Si       0.86065    0.44185    0.91982    1.000
    N5100    N        0.80215    0.47737    0.87622    1.000
    N5101    N        0.93820    0.42473    0.87768    1.000
    Si5102   Si       0.98361    0.47951    0.93297    1.000
    Si5103   Si       0.92689    0.44017    0.95526    1.000
    N5104    N        0.94240    0.47032    0.92663    1.000
    N5105    N        0.88536    0.44570    0.95518    1.000
    Si5106   Si       0.92056    0.46451    0.88786    1.000
    N5107    N        0.87578    0.46695    0.88946    1.000
    N5108    N        0.80979    0.49796    0.09476    1.000
    Si5109   Si       0.78211    0.52492    0.06878    1.000
    Si5110   Si       0.84996    0.50461    0.10939    1.000
    Si5111   Si       0.82669    0.52846    0.00145    1.000
    N5112    N        0.77756    0.48434    0.04551    1.000
    N5113    N        0.81331    0.53828    0.03959    1.000
    N5114    N        0.98069    0.52416    0.08707    1.000
    Si5115   Si       0.95086    0.49908    0.11059    1.000
    Si5116   Si       0.95641    0.48670    0.00268    1.000
    N5117    N        0.93236    0.52264    0.99972    1.000
    N5118    N        0.98385    0.48115    0.03513    1.000
    Si5119   Si       0.83576    0.53259    0.18104    1.000
    N5120    N        0.81682    0.50461    0.20927    1.000
    Si5121   Si       0.79167    0.48996    0.13450    1.000
    N5122    N        0.77154    0.52319    0.15250    1.000
    N5123    N        0.83519    0.49939    0.14988    1.000
    N5124    N        0.75680    0.53403    0.22276    1.000
    Si5125   Si       0.79739    0.53770    0.23407    1.000
    Si5126   Si       0.74089    0.52116    0.18510    1.000
    Si5127   Si       0.91375    0.51780    0.17551    1.000
    N5128    N        0.95434    0.52034    0.18679    1.000
    Si5129   Si       0.98130    0.48890    0.17779    1.000
    N5130    N        0.91603    0.52150    0.13184    1.000
    N5131    N        0.79032    0.50217    0.33944    1.000
    Si5132   Si       0.84823    0.50411    0.26798    1.000
    N5133    N        0.80805    0.52374    0.27283    1.000
    N5134    N        0.85648    0.49190    0.31092    1.000
    Si5135   Si       0.78512    0.53294    0.30959    1.000
    N5136    N        0.74349    0.53456    0.29544    1.000
    N5137    N        0.92250    0.51446    0.31074    1.000
    Si5138   Si       0.88511    0.51300    0.33394    1.000
    Si5139   Si       0.91837    0.52071    0.26675    1.000
    Si5140   Si       0.95551    0.48830    0.32345    1.000
    N5141    N        0.87719    0.53129    0.25556    1.000
    N5142    N        0.97822    0.48765    0.28537    1.000
    N5143    N        0.96239    0.49361    0.36910    1.000
    N5144    N        0.89580    0.49433    0.37004    1.000
    N5145    N        0.83692    0.49757    0.41783    1.000
    Si5146   Si       0.80588    0.52656    0.43119    1.000
    N5147    N        0.78468    0.50862    0.46406    1.000
    Si5148   Si       0.80354    0.53839    0.49763    1.000
    N5149    N        0.89850    0.48818    0.49112    1.000
    N5150    N        0.97116    0.51249    0.48791    1.000
    Si5151   Si       0.88039    0.50441    0.41031    1.000
    N5152    N        0.78569    0.51041    0.52682    1.000
    N5153    N        0.81379    0.49642    0.58485    1.000
    N5154    N        0.76025    0.53051    0.60543    1.000
    N5155    N        0.84479    0.53315    0.51894    1.000
    Si5156   Si       0.78577    0.52535    0.56901    1.000
    Si5157   Si       0.83523    0.52013    0.61533    1.000
    Si5158   Si       0.86140    0.49445    0.51397    1.000
    Si5159   Si       0.90337    0.50504    0.57125    1.000
    N5160    N        0.87347    0.53205    0.59054    1.000
    N5161    N        0.92330    0.52819    0.54056    1.000
    N5162    N        0.92798    0.48194    0.60105    1.000
    Si5163   Si       0.92811    0.52098    0.49857    1.000
    N5164    N        0.81751    0.49799    0.65107    1.000
    N5165    N        0.79669    0.51554    0.71719    1.000
    Si5166   Si       0.84174    0.50246    0.73367    1.000
    Si5167   Si       0.81500    0.53403    0.67745    1.000
    N5168    N        0.96242    0.51035    0.72573    1.000
    N5169    N        0.89695    0.51835    0.65315    1.000
    N5170    N        0.96214    0.52500    0.65579    1.000
    Si5171   Si       0.93106    0.49228    0.64420    1.000
    N5172    N        0.88210    0.49052    0.72124    1.000
    Si5173   Si       0.89067    0.52622    0.69564    1.000
    N5174    N        0.84194    0.51663    0.77694    1.000
    Si5175   Si       0.75044    0.49475    0.79308    1.000
    N5176    N        0.84103    0.51609    0.84360    1.000
    N5177    N        0.77594    0.52696    0.80620    1.000
    N5178    N        0.74876    0.48463    0.75022    1.000
    Si5179   Si       0.81834    0.53592    0.80867    1.000
    N5180    N        0.93308    0.48791    0.85334    1.000
    Si5181   Si       0.87070    0.50183    0.80938    1.000
    N5182    N        0.96851    0.50644    0.79946    1.000
    Si5183   Si       0.96787    0.52986    0.76427    1.000
    Si5184   Si       0.93700    0.53190    0.84989    1.000
    N5185    N        0.90244    0.48323    0.78525    1.000
    N5186    N        0.90022    0.53528    0.82444    1.000
    N5187    N        0.81939    0.52768    0.91797    1.000
    N5188    N        0.79474    0.50166    0.98474    1.000
    Si5189   Si       0.79981    0.48903    0.91937    1.000
    N5190    N        0.75810    0.48687    0.93047    1.000
    Si5191   Si       0.75873    0.51452    0.96339    1.000
    N5192    N        0.86257    0.50467    0.99203    1.000
    Si5193   Si       0.89162    0.53628    0.98676    1.000
    N5194    N        0.98691    0.49865    0.97170    1.000
    N5195    N        0.93026    0.54203    0.89125    1.000
    N5196    N        0.79129    0.56354    0.09211    1.000
    Si5197   Si       0.83042    0.56544    0.07042    1.000
    N5198    N        0.86190    0.54431    0.09512    1.000
    Si5199   Si       0.96948    0.56580    0.08427    1.000
    N5200    N        0.88085    0.56656    0.01705    1.000
    Si5201   Si       0.90081    0.55569    0.11142    1.000
    N5202    N        0.92616    0.56211    0.07631    1.000
    Si5203   Si       0.91311    0.58112    0.04138    1.000
    N5204    N        0.95454    0.58319    0.02415    1.000
    Si5205   Si       0.85472    0.59695    0.14451    1.000
    N5206    N        0.82632    0.56919    0.22096    1.000
    Si5207   Si       0.78722    0.56110    0.13772    1.000
    N5208    N        0.82517    0.56644    0.15364    1.000
    N5209    N        0.76088    0.59468    0.13650    1.000
    N5210    N        0.98311    0.58041    0.19167    1.000
    N5211    N        0.87945    0.54228    0.18928    1.000
    Si5212   Si       0.96982    0.54830    0.21631    1.000
    Si5213   Si       0.87193    0.56338    0.22706    1.000
    N5214    N        0.89483    0.59452    0.13210    1.000
    N5215    N        0.96136    0.57826    0.12669    1.000
    N5216    N        0.79378    0.57186    0.32607    1.000
    Si5217   Si       0.83608    0.58053    0.33491    1.000
    Si5218   Si       0.75774    0.59573    0.33925    1.000
    N5219    N        0.86670    0.54991    0.34435    1.000
    Si5220   Si       0.96977    0.58641    0.32554    1.000
    Si5221   Si       0.92998    0.59257    0.25846    1.000
    N5222    N        0.97227    0.58910    0.36933    1.000
    N5223    N        0.98780    0.54835    0.31515    1.000
    N5224    N        0.93055    0.59525    0.30274    1.000
    N5225    N        0.94164    0.55297    0.24880    1.000
    Si5226   Si       0.77618    0.59190    0.41488    1.000
    N5227    N        0.77861    0.54953    0.40634    1.000
    N5228    N        0.82197    0.55813    0.45702    1.000
    Si5229   Si       0.83635    0.59900    0.45683    1.000
    N5230    N        0.84204    0.59909    0.37380    1.000
    N5231    N        0.74177    0.59635    0.44226    1.000
    Si5232   Si       0.87568    0.57534    0.37936    1.000
    N5233    N        0.98862    0.54537    0.42187    1.000
    N5234    N        0.88946    0.54817    0.40992    1.000
    N5235    N        0.91780    0.55517    0.47484    1.000
    Si5236   Si       0.90500    0.57554    0.44021    1.000
    N5237    N        0.98917    0.58240    0.47881    1.000
    N5238    N        0.81198    0.55933    0.57558    1.000
    Si5239   Si       0.85260    0.55317    0.55896    1.000
    N5240    N        0.77770    0.57514    0.50920    1.000
    N5241    N        0.77621    0.59860    0.61665    1.000
    N5242    N        0.86755    0.59265    0.55805    1.000
    Si5243   Si       0.94367    0.56518    0.55594    1.000
    N5244    N        0.93485    0.55725    0.59826    1.000
    N5245    N        0.98757    0.56387    0.55029    1.000
    Si5246   Si       0.89999    0.54843    0.62131    1.000
    N5247    N        0.73891    0.55316    0.74530    1.000
    Si5248   Si       0.85375    0.59334    0.64725    1.000
    Si5249   Si       0.75759    0.56378    0.63402    1.000
    N5250    N        0.83568    0.55542    0.64283    1.000
    N5251    N        0.77590    0.55436    0.67238    1.000
    Si5252   Si       0.84962    0.58241    0.72104    1.000
    N5253    N        0.85105    0.54195    0.70654    1.000
    Si5254   Si       0.76071    0.53958    0.70980    1.000
    N5255    N        0.92078    0.55628    0.70645    1.000
    N5256    N        0.98627    0.57701    0.70124    1.000
    Si5257   Si       0.92177    0.58472    0.73744    1.000
    N5258    N        0.89477    0.58913    0.63730    1.000
    Si5259   Si       0.96716    0.56188    0.62925    1.000
    Si5260   Si       0.96116    0.54335    0.69632    1.000
    N5261    N        0.83989    0.57530    0.81595    1.000
    N5262    N        0.79244    0.56339    0.85697    1.000
    Si5263   Si       0.75694    0.54160    0.84426    1.000
    Si5264   Si       0.94035    0.59064    0.81108    1.000
    Si5265   Si       0.87624    0.56733    0.84102    1.000
    N5266    N        0.96332    0.56447    0.83752    1.000
    N5267    N        0.94431    0.56791    0.77210    1.000
    N5268    N        0.88163    0.58758    0.75224    1.000
    N5269    N        0.82026    0.59714    0.92604    1.000
    Si5270   Si       0.82453    0.54124    0.87592    1.000
    N5271    N        0.75817    0.55828    0.95163    1.000
    Si5272   Si       0.79301    0.58519    0.95679    1.000
    N5273    N        0.82531    0.56335    0.97744    1.000
    Si5274   Si       0.84378    0.55897    0.93738    1.000
    N5275    N        0.88610    0.55250    0.94708    1.000
    Si5276   Si       0.90007    0.56778    0.90843    1.000
    N5277    N        0.96493    0.56673    0.95508    1.000
    N5278    N        0.86327    0.56400    0.88293    1.000
    Si5279   Si       0.96681    0.55008    0.99597    1.000
    N5280    N        0.78279    0.63669    0.08195    1.000
    Si5281   Si       0.82578    0.63659    0.08155    1.000
    N5282    N        0.83524    0.60375    0.05509    1.000
    Si5283   Si       0.76512    0.59944    0.09093    1.000
    Si5284   Si       0.86105    0.60400    0.01912    1.000
    N5285    N        0.89535    0.62165    0.04168    1.000
    Si5286   Si       0.95592    0.62437    0.01146    1.000
    N5287    N        0.94810    0.63987    0.11143    1.000
    Si5288   Si       0.99096    0.63199    0.10127    1.000
    N5289    N        0.83385    0.63026    0.12370    1.000
    Si5290   Si       0.80954    0.61005    0.22452    1.000
    N5291    N        0.79147    0.62869    0.18749    1.000
    Si5292   Si       0.75281    0.62123    0.16965    1.000
    N5293    N        0.85550    0.62139    0.18350    1.000
    Si5294   Si       0.82303    0.64496    0.16315    1.000
    N5295    N        0.83626    0.64174    0.24282    1.000
    Si5296   Si       0.96966    0.62097    0.20338    1.000
    N5297    N        0.89310    0.59989    0.23837    1.000
    Si5298   Si       0.87253    0.63393    0.22055    1.000
    N5299    N        0.93685    0.63259    0.17795    1.000
    Si5300   Si       0.93346    0.61092    0.13966    1.000
    N5301    N        0.96170    0.61779    0.24605    1.000
    Si5302   Si       0.75120    0.63022    0.26939    1.000
    Si5303   Si       0.85862    0.64413    0.28437    1.000
    N5304    N        0.85954    0.60622    0.30786    1.000
    N5305    N        0.74642    0.62733    0.31219    1.000
    N5306    N        0.77928    0.60139    0.25288    1.000
    Si5307   Si       0.89953    0.61582    0.32320    1.000
    N5308    N        0.90703    0.60668    0.36684    1.000
    N5309    N        0.96123    0.65325    0.37027    1.000
    N5310    N        0.98997    0.62380    0.31288    1.000
    N5311    N        0.76179    0.61193    0.37879    1.000
    Si5312   Si       0.82793    0.63708    0.39292    1.000
    N5313    N        0.80826    0.61805    0.42663    1.000
    Si5314   Si       0.75049    0.63626    0.45757    1.000
    N5315    N        0.77239    0.64194    0.49330    1.000
    N5316    N        0.83278    0.61946    0.49442    1.000
    Si5317   Si       0.96974    0.61291    0.45424    1.000
    Si5318   Si       0.88990    0.64571    0.42846    1.000
    N5319    N        0.93840    0.60120    0.42542    1.000
    N5320    N        0.87379    0.60591    0.43770    1.000
    Si5321   Si       0.94457    0.61662    0.38524    1.000
    N5322    N        0.95020    0.64291    0.47946    1.000
    N5323    N        0.80093    0.62916    0.55747    1.000
    Si5324   Si       0.79603    0.61419    0.51687    1.000
    N5325    N        0.83872    0.62029    0.61590    1.000
    Si5326   Si       0.80960    0.60031    0.58822    1.000
    Si5327   Si       0.85461    0.65574    0.50154    1.000
    N5328    N        0.74975    0.65629    0.59425    1.000
    Si5329   Si       0.89685    0.62462    0.56232    1.000
    Si5330   Si       0.95398    0.63864    0.52312    1.000
    N5331    N        0.93311    0.60677    0.54450    1.000
    N5332    N        0.91574    0.64404    0.59790    1.000
    N5333    N        0.75309    0.62407    0.73545    1.000
    Si5334   Si       0.76312    0.63753    0.63191    1.000
    N5335    N        0.85127    0.60891    0.68858    1.000
    Si5336   Si       0.74908    0.65230    0.70315    1.000
    Si5337   Si       0.94559    0.65081    0.70233    1.000
    N5338    N        0.91467    0.64028    0.67227    1.000
    N5339    N        0.94484    0.62249    0.73361    1.000
    Si5340   Si       0.92479    0.62093    0.63396    1.000
    N5341    N        0.96308    0.60136    0.64266    1.000
    N5342    N        0.98636    0.64963    0.68577    1.000
    Si5343   Si       0.87293    0.64909    0.68658    1.000
    Si5344   Si       0.79003    0.62634    0.76142    1.000
    N5345    N        0.78212    0.60881    0.80281    1.000
    N5346    N        0.80819    0.63131    0.86524    1.000
    N5347    N        0.85587    0.63904    0.79926    1.000
    Si5348   Si       0.80806    0.59922    0.83514    1.000
    Si5349   Si       0.85244    0.59896    0.78193    1.000
    N5350    N        0.74391    0.64275    0.84682    1.000
    N5351    N        0.82022    0.59816    0.75047    1.000
    Si5352   Si       0.88034    0.63933    0.83591    1.000
    Si5353   Si       0.97175    0.63452    0.76685    1.000
    N5354    N        0.95400    0.63053    0.80734    1.000
    N5355    N        0.90109    0.60119    0.83128    1.000
    N5356    N        0.85417    0.63029    0.98557    1.000
    Si5357   Si       0.81626    0.64788    0.97202    1.000
    Si5358   Si       0.83364    0.63256    0.90078    1.000
    N5359    N        0.78159    0.62145    0.98051    1.000
    Si5360   Si       0.74079    0.63267    0.98803    1.000
    N5361    N        0.91832    0.60469    0.91485    1.000
    Si5362   Si       0.90799    0.64535    0.90085    1.000
    N5363    N        0.92765    0.62491    0.98134    1.000
    N5364    N        0.97991    0.63094    0.93560    1.000
    Si5365   Si       0.94618    0.60660    0.94827    1.000
    N5366    N        0.87003    0.64166    0.87982    1.000
    Si5367   Si       0.89550    0.65503    0.97785    1.000
    N5368    N        0.83980    0.67356    0.06558    1.000
    Si5369   Si       0.76358    0.67431    0.08523    1.000
    Si5370   Si       0.84909    0.68763    0.02460    1.000
    N5371    N        0.76527    0.70585    0.05399    1.000
    N5372    N        0.77404    0.70351    0.11654    1.000
    N5373    N        0.81459    0.68053    0.00176    1.000
    Si5374   Si       0.78593    0.71162    0.01322    1.000
    Si5375   Si       0.86492    0.70626    0.08166    1.000
    N5376    N        0.90288    0.68504    0.08149    1.000
    Si5377   Si       0.93397    0.68076    0.11058    1.000
    N5378    N        0.89013    0.68261    0.01108    1.000
    Si5379   Si       0.96539    0.69708    0.01875    1.000
    Si5380   Si       0.91055    0.66198    0.04642    1.000
    N5381    N        0.95233    0.65913    0.03802    1.000
    N5382    N        0.96385    0.71065    0.10049    1.000
    Si5383   Si       0.85194    0.70210    0.20151    1.000
    N5384    N        0.82347    0.68725    0.16882    1.000
    N5385    N        0.82193    0.71196    0.23240    1.000
    N5386    N        0.95337    0.69196    0.21191    1.000
    N5387    N        0.88606    0.67488    0.21206    1.000
    N5388    N        0.91466    0.69257    0.14753    1.000
    Si5389   Si       0.92095    0.67277    0.18534    1.000
    Si5390   Si       0.81319    0.69300    0.33383    1.000
    N5391    N        0.82982    0.67409    0.29748    1.000
    N5392    N        0.77181    0.66815    0.26368    1.000
    Si5393   Si       0.75851    0.70501    0.28175    1.000
    Si5394   Si       0.81506    0.67739    0.25672    1.000
    N5395    N        0.80308    0.66504    0.36859    1.000
    Si5396   Si       0.91325    0.69196    0.31826    1.000
    N5397    N        0.95691    0.69003    0.31429    1.000
    N5398    N        0.90796    0.69808    0.36057    1.000
    Si5399   Si       0.98455    0.66132    0.33486    1.000
    N5400    N        0.89693    0.65571    0.30122    1.000
    N5401    N        0.75158    0.70587    0.47869    1.000
    N5402    N        0.75400    0.66320    0.42487    1.000
    N5403    N        0.86246    0.66214    0.39964    1.000
    Si5404   Si       0.76185    0.65597    0.38303    1.000
    N5405    N        0.87716    0.66855    0.46657    1.000
    Si5406   Si       0.87857    0.71069    0.45647    1.000
    Si5407   Si       0.94131    0.68947    0.38754    1.000
    N5408    N        0.98562    0.70007    0.46027    1.000
    Si5409   Si       0.94435    0.68330    0.46012    1.000
    N5410    N        0.92722    0.66914    0.42228    1.000
    Si5411   Si       0.87129    0.70005    0.38196    1.000
    N5412    N        0.77279    0.69460    0.54616    1.000
    N5413    N        0.83156    0.68229    0.58647    1.000
    Si5414   Si       0.78967    0.66771    0.57295    1.000
    N5415    N        0.82263    0.68515    0.50547    1.000
    Si5416   Si       0.77799    0.68251    0.50412    1.000
    Si5417   Si       0.86399    0.69467    0.56285    1.000
    Si5418   Si       0.93090    0.68210    0.58236    1.000
    N5419    N        0.95738    0.67522    0.54981    1.000
    N5420    N        0.95195    0.70087    0.61701    1.000
    N5421    N        0.87707    0.65866    0.54119    1.000
    N5422    N        0.90350    0.71763    0.57591    1.000
    Si5423   Si       0.83495    0.66118    0.62378    1.000
    N5424    N        0.79445    0.66519    0.63856    1.000
    N5425    N        0.77692    0.68580    0.70276    1.000
    Si5426   Si       0.78626    0.69904    0.66395    1.000
    N5427    N        0.85840    0.67699    0.65659    1.000
    Si5428   Si       0.78457    0.69829    0.74421    1.000
    N5429    N        0.75250    0.71943    0.64858    1.000
    Si5430   Si       0.89254    0.69895    0.73008    1.000
    N5431    N        0.87204    0.66054    0.72676    1.000
    Si5432   Si       0.96569    0.70771    0.73714    1.000
    N5433    N        0.93237    0.69117    0.71535    1.000
    N5434    N        0.78611    0.69526    0.82476    1.000
    Si5435   Si       0.78071    0.66357    0.85391    1.000
    N5436    N        0.80847    0.66531    0.76023    1.000
    N5437    N        0.74614    0.69893    0.76717    1.000
    Si5438   Si       0.85021    0.66672    0.76495    1.000
    N5439    N        0.87874    0.70001    0.77081    1.000
    N5440    N        0.89996    0.67642    0.83048    1.000
    N5441    N        0.96323    0.69951    0.81697    1.000
    Si5442   Si       0.94278    0.66610    0.83404    1.000
    N5443    N        0.98352    0.67574    0.75927    1.000
    Si5444   Si       0.88545    0.71357    0.81260    1.000
    N5445    N        0.78203    0.68799    0.89017    1.000
    Si5446   Si       0.81489    0.70224    0.91649    1.000
    N5447    N        0.82669    0.66210    0.93167    1.000
    N5448    N        0.89432    0.66937    0.93663    1.000
    N5449    N        0.96693    0.68145    0.97980    1.000
    N5450    N        0.94290    0.65501    0.87652    1.000
    Si5451   Si       0.96694    0.71079    0.94722    1.000
    Si5452   Si       0.98092    0.65518    0.89933    1.000
    Si5453   Si       0.88857    0.71200    0.93729    1.000
    Si5454   Si       0.76824    0.73764    0.08852    1.000
    N5455    N        0.80920    0.74788    0.01006    1.000
    N5456    N        0.80626    0.75540    0.08290    1.000
    Si5457   Si       0.82855    0.76024    0.04671    1.000
    Si5458   Si       0.83155    0.76605    0.11657    1.000
    N5459    N        0.86282    0.73470    0.11503    1.000
    N5460    N        0.85945    0.72811    0.04399    1.000
    Si5461   Si       0.89283    0.73235    0.01173    1.000
    Si5462   Si       0.95008    0.75047    0.10770    1.000
    N5463    N        0.93628    0.72954    0.02368    1.000
    N5464    N        0.76657    0.71636    0.18744    1.000
    Si5465   Si       0.79357    0.71598    0.15359    1.000
    Si5466   Si       0.78788    0.73724    0.22026    1.000
    N5467    N        0.79926    0.75958    0.14609    1.000
    N5468    N        0.96903    0.76421    0.19303    1.000
    Si5469   Si       0.95203    0.73742    0.22171    1.000
    N5470    N        0.91602    0.75931    0.23310    1.000
    N5471    N        0.92176    0.75962    0.13996    1.000
    Si5472   Si       0.88368    0.77049    0.20671    1.000
    Si5473   Si       0.89115    0.73026    0.14778    1.000
    N5474    N        0.87011    0.73928    0.18418    1.000
    Si5475   Si       0.76789    0.75748    0.33205    1.000
    Si5476   Si       0.84122    0.76081    0.34855    1.000
    N5477    N        0.76112    0.73860    0.25349    1.000
    N5478    N        0.84362    0.71704    0.35360    1.000
    N5479    N        0.78316    0.71909    0.31670    1.000
    N5480    N        0.79815    0.77105    0.35916    1.000
    Si5481   Si       0.95257    0.72806    0.29384    1.000
    N5482    N        0.90838    0.72650    0.29249    1.000
    Si5483   Si       0.88661    0.76266    0.27463    1.000
    N5484    N        0.97613    0.73171    0.25738    1.000
    N5485    N        0.96518    0.75697    0.32337    1.000
    Si5486   Si       0.96123    0.75790    0.36893    1.000
    N5487    N        0.85842    0.73972    0.48054    1.000
    Si5488   Si       0.86059    0.76852    0.42168    1.000
    Si5489   Si       0.75243    0.74623    0.49413    1.000
    N5490    N        0.79432    0.75185    0.49762    1.000
    Si5491   Si       0.92738    0.76160    0.43901    1.000
    N5492    N        0.87047    0.72705    0.41588    1.000
    N5493    N        0.92071    0.72372    0.45923    1.000
    N5494    N        0.97024    0.72160    0.39095    1.000
    N5495    N        0.85105    0.73378    0.54485    1.000
    Si5496   Si       0.82805    0.72901    0.51022    1.000
    N5497    N        0.94429    0.76873    0.61688    1.000
    N5498    N        0.97555    0.75155    0.52970    1.000
    Si5499   Si       0.88882    0.75466    0.55371    1.000
    Si5500   Si       0.92081    0.73059    0.61642    1.000
    N5501    N        0.90663    0.77065    0.51896    1.000
    Si5502   Si       0.98733    0.77052    0.61653    1.000
    Si5503   Si       0.80939    0.77359    0.66639    1.000
    Si5504   Si       0.84297    0.75614    0.72645    1.000
    N5505    N        0.81614    0.73224    0.66688    1.000
    Si5506   Si       0.85754    0.71915    0.66254    1.000
    N5507    N        0.86768    0.72534    0.70620    1.000
    N5508    N        0.80594    0.73730    0.74586    1.000
    N5509    N        0.98677    0.76894    0.66088    1.000
    N5510    N        0.88683    0.74205    0.63954    1.000
    N5511    N        0.84752    0.73926    0.81211    1.000
    N5512    N        0.77406    0.75036    0.80477    1.000
    Si5513   Si       0.80727    0.73374    0.82709    1.000
    N5514    N        0.81305    0.75298    0.86671    1.000
    Si5515   Si       0.74615    0.71427    0.80945    1.000
    Si5516   Si       0.78537    0.77203    0.76860    1.000
    N5517    N        0.95158    0.74321    0.76025    1.000
    N5518    N        0.91308    0.74782    0.82121    1.000
    Si5519   Si       0.95028    0.74005    0.80416    1.000
    N5520    N        0.97639    0.77096    0.81721    1.000
    Si5521   Si       0.85275    0.75798    0.88816    1.000
    N5522    N        0.80517    0.73804    0.94010    1.000
    Si5523   Si       0.83116    0.75377    0.97228    1.000
    Si5524   Si       0.76526    0.75531    0.93440    1.000
    N5525    N        0.85732    0.71875    0.90607    1.000
    N5526    N        0.74504    0.71824    0.99611    1.000
    N5527    N        0.87033    0.73127    0.97253    1.000
    N5528    N        0.97439    0.76305    0.88565    1.000
    N5529    N        0.92927    0.72588    0.92963    1.000
    N5530    N        0.98791    0.74291    0.96537    1.000
    Si5531   Si       0.93580    0.76223    0.90731    1.000
    N5532    N        0.89523    0.76882    0.88535    1.000
    N5533    N        0.84149    0.80165    0.04109    1.000
    N5534    N        0.83626    0.80983    0.11547    1.000
    Si5535   Si       0.83665    0.82887    0.07565    1.000
    N5536    N        0.74506    0.77639    0.03770    1.000
    Si5537   Si       0.86878    0.80770    0.00811    1.000
    N5538    N        0.96385    0.79527    0.00647    1.000
    Si5539   Si       0.96523    0.80697    0.10192    1.000
    N5540    N        0.94327    0.77960    0.07414    1.000
    N5541    N        0.89669    0.77602    0.01278    1.000
    N5542    N        0.98564    0.77182    0.12032    1.000
    Si5543   Si       0.93621    0.77309    0.03161    1.000
    N5544    N        0.79192    0.78049    0.21014    1.000
    N5545    N        0.84155    0.82389    0.18652    1.000
    Si5546   Si       0.82426    0.80876    0.22390    1.000
    Si5547   Si       0.77353    0.78642    0.16964    1.000
    N5548    N        0.85453    0.77999    0.23984    1.000
    N5549    N        0.78092    0.82929    0.15802    1.000
    Si5550   Si       0.92488    0.80393    0.23765    1.000
    Si5551   Si       0.94106    0.78826    0.16808    1.000
    N5552    N        0.90851    0.80488    0.19411    1.000
    N5553    N        0.94848    0.82140    0.13938    1.000
    N5554    N        0.75463    0.78520    0.30142    1.000
    Si5555   Si       0.74527    0.82511    0.31789    1.000
    N5556    N        0.85927    0.77139    0.31146    1.000
    Si5557   Si       0.87688    0.81000    0.31276    1.000
    N5558    N        0.90665    0.80264    0.27979    1.000
    N5559    N        0.91112    0.81227    0.33990    1.000
    N5560    N        0.97695    0.83004    0.31117    1.000
    Si5561   Si       0.93427    0.82643    0.30497    1.000
    Si5562   Si       0.79898    0.79376    0.39868    1.000
    Si5563   Si       0.80867    0.78897    0.47572    1.000
    N5564    N        0.75694    0.79511    0.40890    1.000
    N5565    N        0.82049    0.78198    0.43404    1.000
    N5566    N        0.77757    0.82140    0.48029    1.000
    N5567    N        0.86281    0.78289    0.38075    1.000
    Si5568   Si       0.73227    0.82899    0.39820    1.000
    N5569    N        0.93136    0.77560    0.39584    1.000
    N5570    N        0.89226    0.78753    0.44814    1.000
    Si5571   Si       0.90181    0.80548    0.38187    1.000
    Si5572   Si       0.87739    0.77799    0.48891    1.000
    N5573    N        0.95862    0.77604    0.46455    1.000
    Si5574   Si       0.89881    0.83260    0.44616    1.000
    Si5575   Si       0.74927    0.82886    0.58752    1.000
    N5576    N        0.84364    0.80179    0.49840    1.000
    N5577    N        0.88458    0.78938    0.58045    1.000
    N5578    N        0.95592    0.81894    0.51835    1.000
    Si5579   Si       0.94875    0.77677    0.50711    1.000
    Si5580   Si       0.88082    0.83366    0.57360    1.000
    Si5581   Si       0.82473    0.83023    0.62463    1.000
    N5582    N        0.76667    0.78378    0.66896    1.000
    N5583    N        0.82857    0.78777    0.70135    1.000
    N5584    N        0.83402    0.78915    0.63337    1.000
    Si5585   Si       0.74335    0.82077    0.66707    1.000
    Si5586   Si       0.87573    0.78294    0.62393    1.000
    Si5587   Si       0.89882    0.79672    0.72631    1.000
    Si5588   Si       0.94579    0.78731    0.65895    1.000
    Si5589   Si       0.95539    0.78067    0.73825    1.000
    N5590    N        0.93050    0.77971    0.70052    1.000
    N5591    N        0.90343    0.81323    0.64144    1.000
    N5592    N        0.96167    0.82887    0.65553    1.000
    N5593    N        0.81905    0.79985    0.78268    1.000
    N5594    N        0.78971    0.81914    0.84868    1.000
    Si5595   Si       0.85417    0.77788    0.79276    1.000
    N5596    N        0.75882    0.79830    0.74784    1.000
    Si5597   Si       0.81000    0.83212    0.81326    1.000
    N5598    N        0.87024    0.80390    0.82483    1.000
    Si5599   Si       0.90307    0.78180    0.84436    1.000
    Si5600   Si       0.97632    0.79274    0.85436    1.000
    N5601    N        0.93599    0.80897    0.85266    1.000
    N5602    N        0.92891    0.81276    0.75569    1.000
    N5603    N        0.87250    0.77686    0.75378    1.000
    Si5604   Si       0.77198    0.82403    0.96724    1.000
    N5605    N        0.76095    0.78177    0.96956    1.000
    N5606    N        0.84634    0.79625    0.96988    1.000
    N5607    N        0.83673    0.80105    0.90038    1.000
    Si5608   Si       0.79911    0.79240    0.88050    1.000
    N5609    N        0.76462    0.78916    0.90639    1.000
    Si5610   Si       0.84259    0.82404    0.93629    1.000
    Si5611   Si       0.97822    0.78416    0.96652    1.000
    N5612    N        0.94456    0.79241    0.93720    1.000
    N5613    N        0.80299    0.85661    0.06958    1.000
    Si5614   Si       0.76505    0.85437    0.04717    1.000
    N5615    N        0.77249    0.84038    0.00693    1.000
    N5616    N        0.75738    0.88618    0.11613    1.000
    N5617    N        0.73796    0.83529    0.07823    1.000
    Si5618   Si       0.79912    0.88716    0.10019    1.000
    Si5619   Si       0.86934    0.87944    0.11582    1.000
    N5620    N        0.87316    0.85603    0.08031    1.000
    Si5621   Si       0.89931    0.86296    0.04576    1.000
    N5622    N        0.88408    0.84848    0.00815    1.000
    N5623    N        0.94053    0.84744    0.04448    1.000
    Si5624   Si       0.96898    0.86893    0.07075    1.000
    Si5625   Si       0.96263    0.83973    0.00711    1.000
    N5626    N        0.94091    0.88201    0.10155    1.000
    N5627    N        0.82815    0.87420    0.12925    1.000
    Si5628   Si       0.75567    0.86666    0.15585    1.000
    Si5629   Si       0.84787    0.87651    0.23833    1.000
    N5630    N        0.76042    0.86792    0.24044    1.000
    Si5631   Si       0.82313    0.83524    0.14866    1.000
    N5632    N        0.89099    0.85894    0.14668    1.000
    Si5633   Si       0.93336    0.86293    0.14083    1.000
    N5634    N        0.95028    0.83723    0.24328    1.000
    N5635    N        0.88239    0.87208    0.21073    1.000
    Si5636   Si       0.88327    0.83858    0.18419    1.000
    Si5637   Si       0.96205    0.87932    0.24051    1.000
    Si5638   Si       0.78826    0.86145    0.27298    1.000
    Si5639   Si       0.81465    0.84886    0.34237    1.000
    N5640    N        0.85278    0.84532    0.32369    1.000
    N5641    N        0.78284    0.84578    0.31287    1.000
    N5642    N        0.82043    0.84272    0.24931    1.000
    N5643    N        0.80656    0.89213    0.35625    1.000
    N5644    N        0.91716    0.86638    0.30207    1.000
    Si5645   Si       0.87811    0.88078    0.31314    1.000
    N5646    N        0.94462    0.89153    0.35981    1.000
    N5647    N        0.97879    0.88790    0.27924    1.000
    Si5648   Si       0.79744    0.87045    0.39804    1.000
    N5649    N        0.75463    0.86660    0.39546    1.000
    N5650    N        0.80714    0.83211    0.38035    1.000
    N5651    N        0.86534    0.85228    0.46367    1.000
    Si5652   Si       0.92510    0.88186    0.39790    1.000
    N5653    N        0.93001    0.84911    0.47028    1.000
    N5654    N        0.90414    0.84213    0.40500    1.000
    Si5655   Si       0.96839    0.85952    0.45224    1.000
    N5656    N        0.96415    0.88857    0.42003    1.000
    N5657    N        0.82126    0.86448    0.52340    1.000
    Si5658   Si       0.80232    0.85827    0.57192    1.000
    N5659    N        0.78497    0.84781    0.61196    1.000
    N5660    N        0.75201    0.87955    0.51390    1.000
    Si5661   Si       0.85259    0.84400    0.50450    1.000
    Si5662   Si       0.78208    0.84850    0.51207    1.000
    N5663    N        0.83858    0.83648    0.58373    1.000
    N5664    N        0.77528    0.83112    0.55162    1.000
    N5665    N        0.94084    0.88114    0.54045    1.000
    Si5666   Si       0.97643    0.87696    0.56736    1.000
    N5667    N        0.96121    0.86066    0.60341    1.000
    N5668    N        0.89646    0.86563    0.60041    1.000
    Si5669   Si       0.92674    0.84965    0.51348    1.000
    N5670    N        0.88784    0.84133    0.52962    1.000
    N5671    N        0.74530    0.86269    0.73604    1.000
    Si5672   Si       0.77036    0.87881    0.63743    1.000
    N5673    N        0.81021    0.85461    0.72826    1.000
    N5674    N        0.76418    0.85821    0.67580    1.000
    N5675    N        0.83571    0.84793    0.66141    1.000
    Si5676   Si       0.77466    0.87959    0.71027    1.000
    Si5677   Si       0.83698    0.83150    0.70244    1.000
    N5678    N        0.87851    0.83579    0.71724    1.000
    N5679    N        0.91600    0.88389    0.73491    1.000
    Si5680   Si       0.92497    0.85185    0.63193    1.000
    N5681    N        0.91755    0.88320    0.66363    1.000
    Si5682   Si       0.89416    0.87369    0.69911    1.000
    Si5683   Si       0.99115    0.84107    0.62577    1.000
    N5684    N        0.83574    0.86651    0.82387    1.000
    N5685    N        0.77398    0.84942    0.79716    1.000
    Si5686   Si       0.75312    0.84217    0.83559    1.000
    N5687    N        0.76805    0.88190    0.85178    1.000
    Si5688   Si       0.77535    0.83736    0.75298    1.000
    Si5689   Si       0.80891    0.88965    0.85442    1.000
    N5690    N        0.95042    0.88489    0.84083    1.000
    Si5691   Si       0.87653    0.84693    0.82991    1.000
    N5692    N        0.89850    0.86387    0.79726    1.000
    Si5693   Si       0.90738    0.84982    0.75877    1.000
    Si5694   Si       0.93504    0.85076    0.86532    1.000
    N5695    N        0.89199    0.85770    0.86894    1.000
    N5696    N        0.80268    0.84448    0.94511    1.000
    Si5697   Si       0.80309    0.88537    0.92959    1.000
    N5698    N        0.82846    0.88477    0.89232    1.000
    N5699    N        0.87177    0.85624    0.93673    1.000
    Si5700   Si       0.87023    0.88000    0.90064    1.000
    N5701    N        0.95458    0.85993    0.90291    1.000
    N5702    N        0.94321    0.85719    0.97213    1.000
    Si5703   Si       0.89924    0.86346    0.97021    1.000
    Si5704   Si       0.96685    0.87431    0.94271    1.000
    N5705    N        0.80086    0.92784    0.08672    1.000
    Si5706   Si       0.77170    0.93240    0.05416    1.000
    N5707    N        0.75190    0.89496    0.04495    1.000
    N5708    N        0.79387    0.94402    0.01865    1.000
    Si5709   Si       0.91881    0.91899    0.08618    1.000
    Si5710   Si       0.90174    0.92789    0.00970    1.000
    N5711    N        0.90433    0.90553    0.04673    1.000
    N5712    N        0.88574    0.91851    0.11218    1.000
    Si5713   Si       0.97072    0.94266    0.04245    1.000
    N5714    N        0.94454    0.94424    0.00825    1.000
    N5715    N        0.98496    0.90174    0.04690    1.000
    N5716    N        0.76588    0.90204    0.18020    1.000
    N5717    N        0.75872    0.94047    0.23070    1.000
    N5718    N        0.82107    0.90990    0.22987    1.000
    Si5719   Si       0.77980    0.90137    0.22186    1.000
    Si5720   Si       0.76156    0.94860    0.18741    1.000
    Si5721   Si       0.88192    0.95117    0.14018    1.000
    N5722    N        0.93352    0.91275    0.23451    1.000
    Si5723   Si       0.98238    0.90985    0.17608    1.000
    Si5724   Si       0.90877    0.90250    0.19602    1.000
    N5725    N        0.88865    0.93799    0.18327    1.000
    N5726    N        0.94278    0.89082    0.17103    1.000
    Si5727   Si       0.82893    0.92643    0.27034    1.000
    Si5728   Si       0.77774    0.90979    0.32694    1.000
    N5729    N        0.79486    0.90311    0.28703    1.000
    N5730    N        0.86481    0.89728    0.27508    1.000
    N5731    N        0.87536    0.91132    0.34507    1.000
    N5732    N        0.92628    0.92898    0.30582    1.000
    Si5733   Si       0.90340    0.92035    0.26636    1.000
    Si5734   Si       0.90708    0.94400    0.34121    1.000
    Si5735   Si       0.94991    0.89310    0.31676    1.000
    N5736    N        0.73880    0.94460    0.48581    1.000
    Si5737   Si       0.84230    0.91098    0.37041    1.000
    N5738    N        0.85505    0.91658    0.46985    1.000
    Si5739   Si       0.81253    0.92774    0.46790    1.000
    N5740    N        0.78016    0.90350    0.45100    1.000
    N5741    N        0.83472    0.88976    0.41032    1.000
    Si5742   Si       0.73979    0.91768    0.44897    1.000
    Si5743   Si       0.86397    0.88788    0.44012    1.000
    Si5744   Si       0.98300    0.90356    0.37814    1.000
    N5745    N        0.89910    0.90670    0.41977    1.000
    N5746    N        0.94225    0.94857    0.44869    1.000
    Si5747   Si       0.97863    0.92743    0.43665    1.000
    Si5748   Si       0.90883    0.94962    0.42261    1.000
    Si5749   Si       0.76280    0.92271    0.51779    1.000
    Si5750   Si       0.83060    0.90468    0.53980    1.000
    N5751    N        0.80767    0.93167    0.51427    1.000
    Si5752   Si       0.77406    0.92936    0.59159    1.000
    N5753    N        0.80432    0.90274    0.57569    1.000
    N5754    N        0.74891    0.93852    0.55558    1.000
    N5755    N        0.74551    0.90426    0.61411    1.000
    N5756    N        0.87036    0.90659    0.55340    1.000
    Si5757   Si       0.91464    0.91628    0.54355    1.000
    N5758    N        0.91738    0.93387    0.58499    1.000
    Si5759   Si       0.95955    0.93575    0.60428    1.000
    Si5760   Si       0.88369    0.90687    0.59511    1.000
    N5761    N        0.91268    0.94075    0.50887    1.000
    N5762    N        0.98762    0.91840    0.57513    1.000
    N5763    N        0.80181    0.90850    0.65177    1.000
    N5764    N        0.79359    0.91562    0.72375    1.000
    Si5765   Si       0.83082    0.89305    0.73426    1.000
    N5766    N        0.85699    0.89736    0.69946    1.000
    Si5767   Si       0.80734    0.95132    0.65279    1.000
    N5768    N        0.86108    0.92110    0.62839    1.000
    Si5769   Si       0.84189    0.89266    0.65797    1.000
    N5770    N        0.97163    0.92124    0.64288    1.000
    Si5771   Si       0.93063    0.92584    0.74047    1.000
    N5772    N        0.95971    0.93190    0.71050    1.000
    Si5773   Si       0.94005    0.92031    0.67291    1.000
    N5774    N        0.81909    0.92736    0.83342    1.000
    N5775    N        0.84770    0.91461    0.76793    1.000
    Si5776   Si       0.85029    0.90712    0.81010    1.000
    Si5777   Si       0.99085    0.89730    0.83915    1.000
    N5778    N        0.88651    0.92013    0.82925    1.000
    N5779    N        0.94068    0.92543    0.78235    1.000
    Si5780   Si       0.89164    0.94393    0.86340    1.000
    Si5781   Si       0.92001    0.89978    0.81224    1.000
    Si5782   Si       0.98218    0.94544    0.78769    1.000
    N5783    N        0.98589    0.94107    0.83150    1.000
    Si5784   Si       0.78836    0.93591    0.97544    1.000
    N5785    N        0.82151    0.91460    0.95705    1.000
    N5786    N        0.75017    0.91627    0.98151    1.000
    Si5787   Si       0.86067    0.93297    0.96406    1.000
    N5788    N        0.76185    0.89611    0.91861    1.000
    N5789    N        0.95909    0.91776    0.93823    1.000
    N5790    N        0.89086    0.91877    0.90074    1.000
    Si5791   Si       0.96893    0.94348    0.97242    1.000
    N5792    N        0.89504    0.90687    0.97224    1.000
    Si5793   Si       0.92937    0.93742    0.91312    1.000
    N5794    N        0.83372    0.98232    0.06351    1.000
    Si5795   Si       0.82949    0.96889    0.02365    1.000
    Si5796   Si       0.81434    0.96642    0.10179    1.000
    N5797    N        0.77930    0.99340    0.10696    1.000
    Si5798   Si       0.74127    0.99539    0.08601    1.000
    Si5799   Si       0.94462    0.98957    0.10132    1.000
    N5800    N        0.86355    0.94808    0.00738    1.000
    N5801    N        0.94528    0.95274    0.07742    1.000
    Si5802   Si       0.82784    0.99376    0.16947    1.000
    N5803    N        0.79527    0.97271    0.18230    1.000
    N5804    N        0.84204    0.96915    0.13460    1.000
    N5805    N        0.98136    0.98606    0.12609    1.000
    N5806    N        0.86319    0.00161    0.19401    1.000
    Si5807   Si       0.95536    0.98046    0.15984    1.000
    Si5808   Si       0.88746    0.96995    0.21228    1.000
    Si5809   Si       0.95606    0.95075    0.22659    1.000
    N5810    N        0.92949    0.98348    0.21590    1.000
    N5811    N        0.91882    0.97359    0.13423    1.000
    N5812    N        0.97477    0.95090    0.18468    1.000
    Si5813   Si       0.81776    0.97019    0.34061    1.000
    N5814    N        0.83373    0.96011    0.29935    1.000
    Si5815   Si       0.74433    0.97734    0.32863    1.000
    N5816    N        0.77887    0.95209    0.33630    1.000
    Si5817   Si       0.86855    0.98135    0.28714    1.000
    N5818    N        0.97906    0.95952    0.26222    1.000
    N5819    N        0.96608    0.98909    0.34582    1.000
    N5820    N        0.89236    0.98275    0.32347    1.000
    N5821    N        0.88092    0.95511    0.25223    1.000
    Si5822   Si       0.97704    0.00215    0.27051    1.000
    Si5823   Si       0.92959    0.00612    0.32824    1.000
    Si5824   Si       0.84033    0.97250    0.41586    1.000
    N5825    N        0.81406    0.96495    0.44724    1.000
    N5826    N        0.83167    0.95268    0.37835    1.000
    Si5827   Si       0.80926    0.00458    0.46587    1.000
    N5828    N        0.87879    0.97346    0.44340    1.000
    N5829    N        0.92080    0.95694    0.38265    1.000
    Si5830   Si       0.87861    0.95197    0.48369    1.000
    Si5831   Si       0.94623    0.96470    0.49134    1.000
    N5832    N        0.92427    0.00316    0.48775    1.000
    Si5833   Si       0.96029    0.97767    0.38566    1.000
    N5834    N        0.98392    0.99709    0.46991    1.000
    N5835    N        0.96068    0.01418    0.40970    1.000
    N5836    N        0.82199    0.98048    0.56824    1.000
    Si5837   Si       0.82236    0.97322    0.52623    1.000
    N5838    N        0.79341    0.99952    0.50456    1.000
    N5839    N        0.78509    0.96379    0.61726    1.000
    Si5840   Si       0.79820    0.00481    0.59726    1.000
    N5841    N        0.86281    0.98264    0.51142    1.000
    Si5842   Si       0.91667    0.98129    0.58547    1.000
    N5843    N        0.95775    0.97818    0.60345    1.000
    N5844    N        0.97774    0.96154    0.52039    1.000
    N5845    N        0.88706    0.99299    0.61430    1.000
    Si5846   Si       0.98824    0.00978    0.59885    1.000
    N5847    N        0.91796    0.01071    0.55527    1.000
    Si5848   Si       0.78888    0.95857    0.72532    1.000
    N5849    N        0.78161    0.96950    0.68372    1.000
    Si5850   Si       0.83807    0.00051    0.69793    1.000
    N5851    N        0.84037    0.97583    0.66106    1.000
    N5852    N        0.82952    0.97387    0.73277    1.000
    Si5853   Si       0.76229    0.98833    0.64726    1.000
    N5854    N        0.89739    0.95534    0.73967    1.000
    Si5855   Si       0.90834    0.97918    0.70368    1.000
    Si5856   Si       0.98345    0.00155    0.72893    1.000
    Si5857   Si       0.87606    0.95971    0.64221    1.000
    N5858    N        0.94528    0.99983    0.70796    1.000
    N5859    N        0.90978    0.95156    0.66879    1.000
    Si5860   Si       0.83027    0.97021    0.83194    1.000
    N5861    N        0.85636    0.97835    0.79797    1.000
    N5862    N        0.79491    0.99810    0.83864    1.000
    Si5863   Si       0.85861    0.95582    0.75896    1.000
    N5864    N        0.86066    0.97531    0.86493    1.000
    Si5865   Si       0.75079    0.00428    0.84153    1.000
    N5866    N        0.76262    0.97768    0.75282    1.000
    N5867    N        0.97734    0.98677    0.77265    1.000
    Si5868   Si       0.96973    0.97047    0.85854    1.000
    N5869    N        0.93310    0.95108    0.87073    1.000
    Si5870   Si       0.82396    0.99401    0.95532    1.000
    N5871    N        0.78682    0.97280    0.94944    1.000
    Si5872   Si       0.74528    0.98761    0.94703    1.000
    N5873    N        0.85938    0.97394    0.94518    1.000
    N5874    N        0.82372    0.00227    0.99747    1.000
    Si5875   Si       0.96278    0.99927    0.93474    1.000
    N5876    N        0.92511    0.97699    0.93226    1.000
    Si5877   Si       0.89215    0.00263    0.94251    1.000
    N5878    N        0.98299    0.98353    0.89795    1.000
    N5879    N        0.98630    0.98544    0.96820    1.000
