# CIF file generated by openbabel 3.1.1, see https://openbabel.org
data_I
_chemical_name_common '3.01-79.aims'
_cell_length_a 39.8708
_cell_length_b 39.8708
_cell_length_c 39.8708
_cell_angle_alpha 90
_cell_angle_beta 90
_cell_angle_gamma 90
loop_
    _atom_site_label
    _atom_site_type_symbol
    _atom_site_fract_x
    _atom_site_fract_y
    _atom_site_fract_z
    _atom_site_occupancy
    N0       N        0.08990    0.03549    0.10006    1.000
    N1       N        0.07756    0.02789    0.03094    1.000
    N2       N        0.02394    0.02302    0.07129    1.000
    Si3      Si       0.04897    0.01876    0.10681    1.000
    Si4      Si       0.00017    0.05449    0.05422    1.000
    Si5      Si       0.06139    0.05959    0.00545    1.000
    Si6      Si       0.10847    0.02886    0.06167    1.000
    N7       N        0.16994    0.02690    0.10476    1.000
    N8       N        0.13634    0.05952    0.05217    1.000
    N9       N        0.23557    0.05422    0.00827    1.000
    Si10     Si       0.16836    0.06459    0.08109    1.000
    N11      N        0.08840    0.01961    0.16924    1.000
    Si12     Si       0.04861    0.03587    0.18216    1.000
    N13      N        0.04395    0.04950    0.13853    1.000
    Si14     Si       0.09072    0.05329    0.13919    1.000
    Si15     Si       0.00247    0.05996    0.13125    1.000
    N16      N        0.05115    0.02216    0.24000    1.000
    Si17     Si       0.06018    0.06697    0.24206    1.000
    N18      N        0.01595    0.00972    0.18842    1.000
    N19      N        0.16227    0.06179    0.17038    1.000
    N20      N        0.22345    0.02651    0.15171    1.000
    Si21     Si       0.17740    0.06504    0.21155    1.000
    N22      N        0.16864    0.03063    0.23672    1.000
    Si23     Si       0.18028    0.02602    0.14797    1.000
    N24      N        0.06403    0.02665    0.35746    1.000
    N25      N        0.02208    0.03846    0.30433    1.000
    Si26     Si       0.09513    0.01318    0.25269    1.000
    N27      N        0.10192    0.05703    0.25063    1.000
    Si28     Si       0.05099    0.06709    0.36701    1.000
    Si29     Si       0.05401    0.01121    0.31721    1.000
    N30      N        0.17540    0.04403    0.35832    1.000
    Si31     Si       0.17791    0.02992    0.28018    1.000
    N32      N        0.22219    0.03017    0.27412    1.000
    Si33     Si       0.21736    0.03380    0.35991    1.000
    N34      N        0.15572    0.06334    0.29659    1.000
    N35      N        0.23893    0.05794    0.33337    1.000
    Si36     Si       0.23805    0.06167    0.24670    1.000
    N37      N        0.08319    0.06107    0.46175    1.000
    N38      N        0.01521    0.04017    0.45382    1.000
    Si39     Si       0.09764    0.02518    0.44155    1.000
    Si40     Si       0.04215    0.06926    0.47016    1.000
    Si41     Si       0.15105    0.01855    0.38212    1.000
    N42      N        0.21401    0.03622    0.46878    1.000
    N43      N        0.11840    0.03796    0.40422    1.000
    N44      N        0.23433    0.02820    0.39873    1.000
    Si45     Si       0.21284    0.01118    0.43152    1.000
    Si46     Si       0.05653    0.04578    0.53918    1.000
    N47      N        0.09375    0.02793    0.53206    1.000
    N48      N        0.02627    0.01532    0.54140    1.000
    Si49     Si       0.10510    0.04944    0.58731    1.000
    N50      N        0.00725    0.04112    0.61554    1.000
    N51      N        0.06388    0.06121    0.58039    1.000
    Si52     Si       0.13085    0.05047    0.52559    1.000
    Si53     Si       0.20606    0.02298    0.51030    1.000
    N54      N        0.16335    0.01993    0.51918    1.000
    N55      N        0.21052    0.06499    0.52423    1.000
    Si56     Si       0.08164    0.06022    0.65686    1.000
    N57      N        0.02132    0.03006    0.70704    1.000
    N58      N        0.06011    0.02437    0.65565    1.000
    Si59     Si       0.11103    0.03789    0.72213    1.000
    Si60     Si       0.99081    0.03350    0.73749    1.000
    Si61     Si       0.15666    0.06831    0.63059    1.000
    N62      N        0.17550    0.02847    0.62053    1.000
    N63      N        0.11510    0.06291    0.62891    1.000
    N64      N        0.21064    0.01380    0.74432    1.000
    Si65     Si       0.21393    0.01586    0.63500    1.000
    N66      N        0.15257    0.04167    0.71401    1.000
    Si67     Si       0.18469    0.01300    0.70861    1.000
    N68      N        0.20974    0.02869    0.67519    1.000
    Si69     Si       0.01609    0.03410    0.80822    1.000
    N70      N        0.01287    0.05284    0.76962    1.000
    N71      N        0.05761    0.03190    0.82427    1.000
    N72      N        0.09938    0.04732    0.76468    1.000
    Si73     Si       0.08336    0.01834    0.79131    1.000
    Si74     Si       0.05087    0.02828    0.86785    1.000
    Si75     Si       0.21975    0.01775    0.84815    1.000
    N76      N        0.15661    0.05074    0.84904    1.000
    Si77     Si       0.20670    0.05566    0.75577    1.000
    N78      N        0.22188    0.05927    0.83118    1.000
    N79      N        0.17026    0.06967    0.78147    1.000
    Si80     Si       0.14880    0.01095    0.83328    1.000
    N81      N        0.08913    0.03311    0.88652    1.000
    N82      N        0.05836    0.03029    0.97237    1.000
    Si83     Si       0.10976    0.06466    0.90654    1.000
    N84      N        0.03215    0.06489    0.88500    1.000
    Si85     Si       0.09459    0.00959    0.98703    1.000
    Si86     Si       0.15644    0.01766    0.95571    1.000
    N87      N        0.14166    0.03533    0.91878    1.000
    N88      N        0.20535    0.02443    0.88902    1.000
    N89      N        0.13301    0.03084    0.98904    1.000
    N90      N        0.19499    0.03830    0.95788    1.000
    Si91     Si       0.17044    0.05141    0.89041    1.000
    Si92     Si       0.22499    0.02714    0.92701    1.000
    N93      N        0.02601    0.07691    0.02517    1.000
    Si94     Si       0.01071    0.11703    0.02464    1.000
    N95      N        0.99001    0.07693    0.09273    1.000
    N96      N        0.20698    0.07909    0.06681    1.000
    N97      N        0.16963    0.09689    0.11172    1.000
    Si98     Si       0.21179    0.10840    0.10021    1.000
    N99      N        0.16922    0.08867    0.99645    1.000
    Si100    Si       0.24031    0.08405    0.03888    1.000
    Si101    Si       0.13423    0.06850    0.01122    1.000
    N102     N        0.00189    0.12431    0.22259    1.000
    Si103    Si       0.02069    0.10704    0.18556    1.000
    N104     N        0.10525    0.09347    0.14190    1.000
    N105     N        0.05041    0.07787    0.20158    1.000
    N106     N        0.99102    0.08395    0.16529    1.000
    Si107    Si       0.14809    0.09733    0.14896    1.000
    N108     N        0.15804    0.09401    0.23741    1.000
    N109     N        0.23755    0.09672    0.13463    1.000
    N110     N        0.22187    0.06580    0.20789    1.000
    N111     N        0.03989    0.09171    0.26866    1.000
    N112     N        0.05368    0.09617    0.33467    1.000
    Si113    Si       0.09401    0.11795    0.33646    1.000
    Si114    Si       0.02538    0.08134    0.30754    1.000
    N115     N        0.10973    0.11698    0.29256    1.000
    N116     N        0.12551    0.09219    0.35432    1.000
    N117     N        0.19179    0.11136    0.32947    1.000
    Si118    Si       0.16257    0.07951    0.33574    1.000
    Si119    Si       0.12911    0.08502    0.26873    1.000
    Si120    Si       0.23089    0.09575    0.31547    1.000
    N121     N        0.23071    0.09598    0.27218    1.000
    N122     N        0.07176    0.08856    0.39921    1.000
    N123     N        0.02780    0.10569    0.45231    1.000
    Si124    Si       0.03380    0.10964    0.40962    1.000
    N125     N        0.01063    0.07768    0.38811    1.000
    Si126    Si       0.11210    0.09254    0.46895    1.000
    Si127    Si       0.99023    0.11792    0.47423    1.000
    Si128    Si       0.11498    0.08130    0.39578    1.000
    Si129    Si       0.16905    0.12144    0.44185    1.000
    Si130    Si       0.23260    0.07752    0.47136    1.000
    N131     N        0.13378    0.09962    0.43046    1.000
    N132     N        0.19767    0.10334    0.46853    1.000
    N133     N        0.14164    0.08087    0.49695    1.000
    N134     N        0.01278    0.11051    0.59713    1.000
    N135     N        0.04701    0.07743    0.51243    1.000
    Si136    Si       0.03336    0.07496    0.60831    1.000
    Si137    Si       0.05617    0.11993    0.51133    1.000
    N138     N        0.16922    0.10479    0.60846    1.000
    Si139    Si       0.15221    0.11207    0.57042    1.000
    Si140    Si       0.18140    0.09359    0.50693    1.000
    N141     N        0.13228    0.07519    0.56294    1.000
    N142     N        0.18104    0.12387    0.53675    1.000
    N143     N        0.08971    0.06754    0.69802    1.000
    N144     N        0.05427    0.09193    0.64491    1.000
    Si145    Si       0.08873    0.10613    0.71827    1.000
    N146     N        0.05486    0.10955    0.74363    1.000
    Si147    Si       0.22761    0.06762    0.68673    1.000
    Si148    Si       0.15988    0.08356    0.70945    1.000
    N149     N        0.20237    0.08281    0.72082    1.000
    N150     N        0.16432    0.09132    0.66803    1.000
    N151     N        0.13054    0.10425    0.73602    1.000
    Si152    Si       0.19167    0.11560    0.64384    1.000
    N153     N        0.22649    0.09089    0.64948    1.000
    Si154    Si       0.21645    0.12297    0.73742    1.000
    Si155    Si       0.02312    0.09386    0.77007    1.000
    N156     N        0.03714    0.09820    0.81055    1.000
    Si157    Si       0.01703    0.08606    0.84893    1.000
    Si158    Si       0.07532    0.11848    0.81808    1.000
    N159     N        0.99437    0.12364    0.75336    1.000
    N160     N        0.11089    0.09756    0.80808    1.000
    N161     N        0.99758    0.12176    0.86123    1.000
    N162     N        0.17999    0.11456    0.83520    1.000
    Si163    Si       0.12839    0.07867    0.77345    1.000
    Si164    Si       0.18097    0.07374    0.82303    1.000
    N165     N        0.00360    0.07398    0.94777    1.000
    Si166    Si       0.03729    0.08761    0.92307    1.000
    N167     N        0.08220    0.09374    0.92870    1.000
    Si168    Si       0.09859    0.11507    0.96677    1.000
    Si169    Si       0.09014    0.12306    0.89623    1.000
    N170     N        0.09488    0.08605    0.00022    1.000
    N171     N        0.21479    0.11177    0.96022    1.000
    Si172    Si       0.22505    0.10426    0.91851    1.000
    N173     N        0.18816    0.09162    0.89974    1.000
    Si174    Si       0.16315    0.11804    0.87494    1.000
    Si175    Si       0.20707    0.07345    0.97899    1.000
    N176     N        0.12516    0.10019    0.88439    1.000
    Si177    Si       0.04349    0.16358    0.07639    1.000
    N178     N        0.07804    0.15289    0.10000    1.000
    N179     N        0.00914    0.14902    0.10030    1.000
    N180     N        0.04075    0.14579    0.03902    1.000
    Si181    Si       0.06953    0.16554    0.01023    1.000
    N182     N        0.10974    0.15642    0.02092    1.000
    Si183    Si       0.11135    0.18312    0.10609    1.000
    N184     N        0.20947    0.14691    0.08067    1.000
    N185     N        0.18143    0.15330    0.01514    1.000
    Si186    Si       0.14630    0.17005    0.03585    1.000
    Si187    Si       0.22898    0.15526    0.04174    1.000
    N188     N        0.14404    0.17663    0.07970    1.000
    Si189    Si       0.18528    0.18132    0.09465    1.000
    N190     N        0.04492    0.13221    0.15945    1.000
    Si191    Si       0.01699    0.16263    0.14104    1.000
    Si192    Si       0.08385    0.13217    0.13711    1.000
    N193     N        0.11681    0.16286    0.14484    1.000
    N194     N        0.12821    0.15542    0.23832    1.000
    N195     N        0.19119    0.17856    0.13819    1.000
    Si196    Si       0.16190    0.13361    0.22206    1.000
    Si197    Si       0.15490    0.16967    0.16255    1.000
    N198     N        0.16004    0.12777    0.17832    1.000
    N199     N        0.20584    0.14123    0.22281    1.000
    Si200    Si       0.09637    0.15182    0.26977    1.000
    N201     N        0.09158    0.15244    0.36200    1.000
    N202     N        0.00286    0.14943    0.29143    1.000
    Si203    Si       0.02317    0.13218    0.25857    1.000
    N204     N        0.05955    0.15362    0.24790    1.000
    N205     N        0.21007    0.16700    0.28963    1.000
    Si206    Si       0.19503    0.15481    0.33098    1.000
    N207     N        0.22503    0.17129    0.35819    1.000
    N208     N        0.15504    0.17327    0.33216    1.000
    Si209    Si       0.22632    0.13865    0.26230    1.000
    Si210    Si       0.12561    0.18238    0.36362    1.000
    Si211    Si       0.05916    0.18044    0.37581    1.000
    Si212    Si       0.00145    0.17203    0.42578    1.000
    N213     N        0.03093    0.15244    0.40102    1.000
    Si214    Si       0.11510    0.16316    0.47536    1.000
    N215     N        0.09190    0.12725    0.48396    1.000
    N216     N        0.21905    0.18479    0.43332    1.000
    Si217    Si       0.22148    0.15609    0.40039    1.000
    N218     N        0.15670    0.15762    0.46286    1.000
    N219     N        0.18876    0.12722    0.40421    1.000
    Si220    Si       0.18901    0.18856    0.46594    1.000
    Si221    Si       0.09688    0.16847    0.54718    1.000
    Si222    Si       0.04285    0.14044    0.58621    1.000
    N223     N        0.06755    0.13444    0.55104    1.000
    N224     N        0.01551    0.17195    0.57144    1.000
    N225     N        0.01352    0.13189    0.50783    1.000
    N226     N        0.13415    0.15216    0.56499    1.000
    Si227    Si       0.18701    0.16688    0.54305    1.000
    N228     N        0.21297    0.16516    0.58117    1.000
    Si229    Si       0.19869    0.18325    0.61842    1.000
    N230     N        0.20564    0.18093    0.50574    1.000
    N231     N        0.05579    0.15686    0.62414    1.000
    Si232    Si       0.04948    0.13254    0.65941    1.000
    Si233    Si       0.09891    0.17751    0.70581    1.000
    N234     N        0.01542    0.13438    0.68680    1.000
    Si235    Si       0.02861    0.14312    0.73064    1.000
    N236     N        0.08225    0.14013    0.69120    1.000
    N237     N        0.18324    0.14769    0.72363    1.000
    Si238    Si       0.14756    0.14474    0.74467    1.000
    N239     N        0.11483    0.17168    0.74452    1.000
    N240     N        0.13891    0.18094    0.68507    1.000
    N241     N        0.20032    0.15592    0.65312    1.000
    Si242    Si       0.18253    0.17408    0.68823    1.000
    N243     N        0.08151    0.15937    0.80261    1.000
    N244     N        0.00446    0.16912    0.80222    1.000
    Si245    Si       0.04411    0.18069    0.79330    1.000
    N246     N        0.06480    0.12437    0.86086    1.000
    N247     N        0.04047    0.18118    0.74846    1.000
    Si248    Si       0.11698    0.17891    0.78807    1.000
    N249     N        0.15625    0.15664    0.78687    1.000
    Si250    Si       0.19209    0.14592    0.80852    1.000
    N251     N        0.22226    0.13473    0.78010    1.000
    N252     N        0.20777    0.17920    0.83331    1.000
    Si253    Si       0.02947    0.14349    0.87914    1.000
    Si254    Si       0.02583    0.15141    0.95688    1.000
    N255     N        0.06635    0.14441    0.97232    1.000
    N256     N        0.10177    0.16344    0.90697    1.000
    N257     N        0.00114    0.13201    0.98559    1.000
    N258     N        0.02781    0.13000    0.91966    1.000
    N259     N        0.13607    0.13228    0.95539    1.000
    Si260    Si       0.17521    0.13031    0.97751    1.000
    N261     N        0.16696    0.15844    0.89068    1.000
    N262     N        0.17992    0.17380    0.95630    1.000
    Si263    Si       0.14303    0.16916    0.92798    1.000
    Si264    Si       0.05724    0.22306    0.10914    1.000
    Si265    Si       0.02923    0.22473    0.03447    1.000
    N266     N        0.04480    0.20596    0.07121    1.000
    N267     N        0.10084    0.22403    0.11227    1.000
    N268     N        0.05339    0.20446    0.00299    1.000
    N269     N        0.15313    0.20941    0.01619    1.000
    N270     N        0.20154    0.21865    0.08167    1.000
    N271     N        0.23031    0.19624    0.02281    1.000
    Si272    Si       0.22920    0.23146    0.05004    1.000
    Si273    Si       0.02938    0.22708    0.17055    1.000
    N274     N        0.03902    0.20023    0.13903    1.000
    N275     N        0.08950    0.21203    0.22290    1.000
    N276     N        0.02083    0.20446    0.20743    1.000
    Si277    Si       0.05262    0.19524    0.23686    1.000
    Si278    Si       0.23064    0.19281    0.14943    1.000
    N279     N        0.22956    0.23679    0.14018    1.000
    N280     N        0.23851    0.19382    0.19302    1.000
    Si281    Si       0.23324    0.23495    0.21054    1.000
    Si282    Si       0.16143    0.24365    0.18015    1.000
    N283     N        0.15177    0.20282    0.19103    1.000
    Si284    Si       0.13239    0.19894    0.22889    1.000
    N285     N        0.03286    0.21271    0.27366    1.000
    Si286    Si       0.07546    0.21194    0.32000    1.000
    N287     N        0.09705    0.21542    0.35692    1.000
    N288     N        0.10157    0.18986    0.29244    1.000
    N289     N        0.04141    0.18943    0.33576    1.000
    Si290    Si       0.01123    0.18797    0.30515    1.000
    Si291    Si       0.20308    0.20901    0.27903    1.000
    Si292    Si       0.14231    0.20294    0.29901    1.000
    N293     N        0.16358    0.20557    0.26239    1.000
    N294     N        0.20400    0.22779    0.31744    1.000
    N295     N        0.23192    0.23117    0.25370    1.000
    Si296    Si       0.23708    0.21241    0.34372    1.000
    N297     N        0.14291    0.24427    0.31347    1.000
    N298     N        0.10021    0.19061    0.44494    1.000
    Si299    Si       0.05975    0.20735    0.44487    1.000
    N300     N        0.05308    0.21507    0.40261    1.000
    N301     N        0.01813    0.19564    0.45810    1.000
    N302     N        0.06341    0.24220    0.47170    1.000
    Si303    Si       0.01072    0.21059    0.49802    1.000
    Si304    Si       0.13280    0.21551    0.42901    1.000
    N305     N        0.14794    0.19161    0.39701    1.000
    N306     N        0.16321    0.22376    0.45888    1.000
    Si307    Si       0.02304    0.21467    0.56539    1.000
    N308     N        0.04291    0.20618    0.52636    1.000
    Si309    Si       0.08020    0.22488    0.50939    1.000
    N310     N        0.09437    0.20035    0.57867    1.000
    N311     N        0.04854    0.23749    0.59263    1.000
    Si312    Si       0.06205    0.20111    0.61719    1.000
    N313     N        0.10574    0.18901    0.51082    1.000
    Si314    Si       0.13733    0.20436    0.58469    1.000
    Si315    Si       0.20259    0.23219    0.56701    1.000
    N316     N        0.16981    0.20656    0.55784    1.000
    N317     N        0.21651    0.22501    0.61043    1.000
    N318     N        0.15721    0.19250    0.62078    1.000
    Si319    Si       0.06748    0.23588    0.66727    1.000
    N320     N        0.03320    0.21444    0.65210    1.000
    N321     N        0.09463    0.21365    0.64246    1.000
    Si322    Si       0.04336    0.22179    0.73348    1.000
    N323     N        0.07692    0.21433    0.70532    1.000
    Si324    Si       0.99478    0.22178    0.67411    1.000
    N325     N        0.01443    0.23937    0.70892    1.000
    N326     N        0.20533    0.21170    0.69109    1.000
    Si327    Si       0.13613    0.21082    0.65308    1.000
    N328     N        0.05746    0.22099    0.80863    1.000
    Si329    Si       0.09312    0.23708    0.82592    1.000
    N330     N        0.09728    0.21853    0.86463    1.000
    N331     N        0.99763    0.23419    0.77477    1.000
    N332     N        0.12557    0.21860    0.80205    1.000
    Si333    Si       0.22952    0.20884    0.81198    1.000
    N334     N        0.16508    0.22740    0.85530    1.000
    N335     N        0.20159    0.23278    0.79047    1.000
    Si336    Si       0.16289    0.24003    0.80986    1.000
    Si337    Si       0.18869    0.19184    0.87073    1.000
    N338     N        0.07505    0.22128    0.93613    1.000
    Si339    Si       0.04056    0.22017    0.96486    1.000
    Si340    Si       0.07642    0.19738    0.89742    1.000
    Si341    Si       0.00121    0.19888    0.90646    1.000
    N342     N        0.01292    0.19193    0.94755    1.000
    N343     N        0.99581    0.24114    0.90103    1.000
    N344     N        0.03706    0.18593    0.88565    1.000
    N345     N        0.21300    0.20314    0.90663    1.000
    Si346    Si       0.18480    0.22260    0.93271    1.000
    Si347    Si       0.13470    0.23403    0.88256    1.000
    N348     N        0.14165    0.21448    0.92222    1.000
    N349     N        0.19695    0.23102    0.97685    1.000
    Si350    Si       0.19096    0.19168    0.99602    1.000
    N351     N        0.03556    0.26734    0.03197    1.000
    N352     N        0.04583    0.26425    0.10911    1.000
    Si353    Si       0.03980    0.28668    0.07224    1.000
    N354     N        0.16611    0.27773    0.03152    1.000
    N355     N        0.13512    0.28672    0.08879    1.000
    N356     N        0.20272    0.28846    0.09193    1.000
    Si357    Si       0.19767    0.25001    0.11298    1.000
    N358     N        0.23275    0.26320    0.02460    1.000
    Si359    Si       0.16324    0.24901    0.00023    1.000
    Si360    Si       0.12335    0.25913    0.12054    1.000
    N361     N        0.05670    0.25868    0.17628    1.000
    Si362    Si       0.08480    0.25339    0.20873    1.000
    Si363    Si       0.05716    0.29085    0.14532    1.000
    N364     N        0.10133    0.29665    0.13963    1.000
    N365     N        0.06520    0.27264    0.24322    1.000
    N366     N        0.12502    0.26413    0.19378    1.000
    N367     N        0.16230    0.25011    0.13654    1.000
    N368     N        0.19740    0.25948    0.19937    1.000
    N369     N        0.00822    0.27994    0.27926    1.000
    Si370    Si       0.04343    0.25392    0.27524    1.000
    N371     N        0.07127    0.25418    0.30751    1.000
    Si372    Si       0.10966    0.27147    0.31150    1.000
    N373     N        0.99651    0.24695    0.36723    1.000
    N374     N        0.11415    0.28402    0.35433    1.000
    Si375    Si       0.17926    0.26190    0.32958    1.000
    N376     N        0.19333    0.29459    0.30454    1.000
    N377     N        0.12076    0.30146    0.28052    1.000
    Si378    Si       0.09164    0.25288    0.37770    1.000
    N379     N        0.05727    0.27911    0.38618    1.000
    Si380    Si       0.02958    0.27049    0.47164    1.000
    N381     N        0.00692    0.26834    0.43424    1.000
    Si382    Si       0.02665    0.25111    0.40008    1.000
    Si383    Si       0.21895    0.26736    0.39614    1.000
    N384     N        0.18096    0.27468    0.37588    1.000
    Si385    Si       0.14834    0.28569    0.40463    1.000
    N386     N        0.12120    0.25332    0.41172    1.000
    Si387    Si       0.18686    0.25961    0.47021    1.000
    N388     N        0.22232    0.27937    0.49384    1.000
    N389     N        0.22100    0.25400    0.43821    1.000
    N390     N        0.16913    0.29297    0.44311    1.000
    Si391    Si       0.03822    0.28114    0.60162    1.000
    N392     N        0.08055    0.29191    0.59165    1.000
    N393     N        0.01474    0.29629    0.56839    1.000
    N394     N        0.09395    0.25617    0.53503    1.000
    N395     N        0.00256    0.25428    0.50361    1.000
    Si396    Si       0.09012    0.25010    0.57972    1.000
    Si397    Si       0.12369    0.28427    0.52119    1.000
    Si398    Si       0.15578    0.28527    0.58737    1.000
    N399     N        0.19057    0.27382    0.56359    1.000
    Si400    Si       0.19385    0.29373    0.52544    1.000
    N401     N        0.16239    0.27019    0.50688    1.000
    N402     N        0.13283    0.24974    0.59433    1.000
    N403     N        0.08341    0.27689    0.66770    1.000
    N404     N        0.02515    0.29425    0.64068    1.000
    Si405    Si       0.07502    0.29583    0.74167    1.000
    N406     N        0.11426    0.28344    0.73117    1.000
    Si407    Si       0.12182    0.27955    0.68680    1.000
    Si408    Si       0.18528    0.24973    0.69113    1.000
    N409     N        0.18372    0.27013    0.72983    1.000
    Si410    Si       0.23378    0.25706    0.63490    1.000
    N411     N        0.20561    0.27367    0.66315    1.000
    N412     N        0.14577    0.24469    0.67558    1.000
    N413     N        0.10127    0.27947    0.82713    1.000
    N414     N        0.03374    0.28749    0.81893    1.000
    N415     N        0.05567    0.25842    0.75595    1.000
    Si416    Si       0.03255    0.25425    0.79363    1.000
    Si417    Si       0.21511    0.26084    0.75871    1.000
    N418     N        0.15769    0.28067    0.79312    1.000
    Si419    Si       0.15326    0.29261    0.75232    1.000
    Si420    Si       0.13721    0.30164    0.82318    1.000
    N421     N        0.23791    0.29852    0.76835    1.000
    N422     N        0.04390    0.28828    0.89315    1.000
    Si423    Si       0.01319    0.27498    0.92241    1.000
    N424     N        0.02468    0.25951    0.96166    1.000
    N425     N        0.08672    0.28692    0.94743    1.000
    Si426    Si       0.11019    0.24866    0.93943    1.000
    Si427    Si       0.08279    0.29948    0.90677    1.000
    Si428    Si       0.02027    0.28683    0.99717    1.000
    Si429    Si       0.23422    0.25599    0.98130    1.000
    Si430    Si       0.22283    0.29151    0.91751    1.000
    N431     N        0.18423    0.26455    0.91624    1.000
    N432     N        0.11997    0.27056    0.89930    1.000
    Si433    Si       0.15660    0.29564    0.90149    1.000
    N434     N        0.13696    0.26439    0.97125    1.000
    N435     N        0.23347    0.29375    0.96033    1.000
    Si436    Si       0.07695    0.33340    0.02527    1.000
    N437     N        0.00687    0.31375    0.07567    1.000
    Si438    Si       0.10480    0.31524    0.09931    1.000
    N439     N        0.07369    0.31407    0.06569    1.000
    N440     N        0.03919    0.32826    0.00075    1.000
    Si441    Si       0.01386    0.35577    0.08600    1.000
    N442     N        0.11238    0.32497    0.00134    1.000
    Si443    Si       0.16951    0.30235    0.06658    1.000
    N444     N        0.11916    0.35449    0.10385    1.000
    N445     N        0.15740    0.34201    0.05081    1.000
    Si446    Si       0.15031    0.34774    0.00782    1.000
    N447     N        0.21611    0.35552    0.09545    1.000
    Si448    Si       0.23285    0.31736    0.10109    1.000
    N449     N        0.03619    0.32752    0.13856    1.000
    N450     N        0.10319    0.32205    0.21261    1.000
    Si451    Si       0.00201    0.35594    0.20317    1.000
    N452     N        0.04255    0.35588    0.22006    1.000
    Si453    Si       0.99051    0.32148    0.13915    1.000
    Si454    Si       0.08283    0.35955    0.20329    1.000
    N455     N        0.22671    0.32763    0.20572    1.000
    N456     N        0.16407    0.32231    0.17744    1.000
    Si457    Si       0.20305    0.34968    0.24085    1.000
    N458     N        0.17794    0.31399    0.24570    1.000
    Si459    Si       0.19199    0.30143    0.20654    1.000
    Si460    Si       0.12342    0.30443    0.17871    1.000
    N461     N        0.05927    0.32953    0.27668    1.000
    Si462    Si       0.02080    0.31648    0.29690    1.000
    N463     N        0.08301    0.34643    0.35848    1.000
    N464     N        0.02344    0.30755    0.33888    1.000
    Si465    Si       0.08815    0.30900    0.25182    1.000
    N466     N        0.00612    0.35840    0.28851    1.000
    Si467    Si       0.12135    0.32662    0.35612    1.000
    N468     N        0.15431    0.33560    0.32868    1.000
    Si469    Si       0.15921    0.32070    0.28511    1.000
    Si470    Si       0.22890    0.31957    0.30233    1.000
    N471     N        0.23019    0.33400    0.34348    1.000
    Si472    Si       0.19024    0.35225    0.35124    1.000
    N473     N        0.22119    0.35755    0.27904    1.000
    Si474    Si       0.05070    0.31925    0.37199    1.000
    Si475    Si       0.07784    0.33283    0.49262    1.000
    N476     N        0.04185    0.31157    0.47659    1.000
    Si477    Si       0.00900    0.34095    0.48197    1.000
    N478     N        0.02832    0.35212    0.38888    1.000
    Si479    Si       0.15366    0.32421    0.47012    1.000
    N480     N        0.11499    0.31042    0.48598    1.000
    N481     N        0.13853    0.32641    0.39663    1.000
    N482     N        0.15276    0.36475    0.45094    1.000
    N483     N        0.06817    0.33351    0.53513    1.000
    Si484    Si       0.09485    0.32434    0.56812    1.000
    Si485    Si       0.02779    0.33376    0.55305    1.000
    N486     N        0.99650    0.33675    0.52246    1.000
    N487     N        0.03482    0.35888    0.58698    1.000
    N488     N        0.10212    0.35916    0.59337    1.000
    Si489    Si       0.06504    0.36361    0.61668    1.000
    N490     N        0.16939    0.31521    0.61427    1.000
    N491     N        0.18056    0.33239    0.50600    1.000
    N492     N        0.22506    0.35382    0.60450    1.000
    Si493    Si       0.22573    0.34525    0.50748    1.000
    N494     N        0.23236    0.32315    0.54465    1.000
    Si495    Si       0.18324    0.35502    0.60189    1.000
    N496     N        0.13286    0.30763    0.55601    1.000
    N497     N        0.06783    0.34713    0.65803    1.000
    Si498    Si       0.00735    0.32352    0.72629    1.000
    N499     N        0.04703    0.30994    0.71226    1.000
    Si500    Si       0.05523    0.30799    0.67008    1.000
    N501     N        0.01414    0.36121    0.74529    1.000
    Si502    Si       0.18436    0.30976    0.65415    1.000
    N503     N        0.16585    0.33514    0.74346    1.000
    N504     N        0.14915    0.31111    0.68003    1.000
    Si505    Si       0.16690    0.34395    0.70093    1.000
    N506     N        0.20543    0.34216    0.67795    1.000
    N507     N        0.07814    0.32483    0.77394    1.000
    N508     N        0.05856    0.33632    0.84413    1.000
    Si509    Si       0.07268    0.30754    0.81338    1.000
    Si510    Si       0.02471    0.30874    0.85676    1.000
    Si511    Si       0.09910    0.36141    0.78521    1.000
    Si512    Si       0.23567    0.32860    0.80002    1.000
    N513     N        0.12867    0.34283    0.81203    1.000
    Si514    Si       0.19438    0.33099    0.86349    1.000
    N515     N        0.22719    0.31333    0.83942    1.000
    N516     N        0.16073    0.30389    0.85938    1.000
    N517     N        0.08019    0.34308    0.90794    1.000
    N518     N        0.99774    0.34568    0.87539    1.000
    N519     N        0.17331    0.32854    0.97860    1.000
    Si520    Si       0.18178    0.34720    0.93951    1.000
    N521     N        0.19876    0.32449    0.90542    1.000
    Si522    Si       0.12259    0.30539    0.96395    1.000
    N523     N        0.13752    0.32690    0.92774    1.000
    Si524    Si       0.05455    0.39537    0.03757    1.000
    N525     N        0.01517    0.37634    0.04900    1.000
    N526     N        0.04175    0.38538    0.10718    1.000
    N527     N        0.08953    0.37178    0.04277    1.000
    N528     N        0.14340    0.41005    0.06211    1.000
    Si529    Si       0.12605    0.37135    0.06559    1.000
    N530     N        0.08422    0.37287    0.16261    1.000
    N531     N        0.00834    0.38554    0.17298    1.000
    N532     N        0.10425    0.38877    0.22796    1.000
    Si533    Si       0.04207    0.36953    0.14759    1.000
    Si534    Si       0.11439    0.38460    0.13473    1.000
    Si535    Si       0.23679    0.41508    0.15616    1.000
    N536     N        0.22372    0.37446    0.16082    1.000
    N537     N        0.15315    0.39282    0.15503    1.000
    Si538    Si       0.14628    0.39240    0.23835    1.000
    Si539    Si       0.17922    0.36525    0.17505    1.000
    N540     N        0.18148    0.37850    0.21713    1.000
    N541     N        0.05659    0.40306    0.27561    1.000
    N542     N        0.03492    0.40693    0.34120    1.000
    Si543    Si       0.99993    0.38948    0.32161    1.000
    Si544    Si       0.04255    0.36521    0.26280    1.000
    Si545    Si       0.18763    0.38538    0.29460    1.000
    N546     N        0.19087    0.39368    0.33611    1.000
    N547     N        0.15384    0.36523    0.27303    1.000
    Si548    Si       0.05737    0.37943    0.37006    1.000
    N549     N        0.08444    0.37022    0.47418    1.000
    N550     N        0.01760    0.38251    0.47823    1.000
    Si551    Si       0.05584    0.40165    0.48402    1.000
    N552     N        0.07268    0.41264    0.39162    1.000
    Si553    Si       0.23620    0.38757    0.39653    1.000
    Si554    Si       0.12305    0.38879    0.47232    1.000
    N555     N        0.14650    0.40260    0.38965    1.000
    Si556    Si       0.15820    0.36365    0.40825    1.000
    N557     N        0.19987    0.36247    0.39298    1.000
    Si558    Si       0.00272    0.38775    0.58927    1.000
    N559     N        0.06215    0.41337    0.52615    1.000
    Si560    Si       0.10513    0.42174    0.53445    1.000
    Si561    Si       0.16869    0.37067    0.52459    1.000
    Si562    Si       0.13269    0.38714    0.59219    1.000
    N563     N        0.13472    0.39461    0.51313    1.000
    N564     N        0.20962    0.38627    0.51280    1.000
    N565     N        0.16409    0.37017    0.56612    1.000
    N566     N        0.23591    0.42087    0.61958    1.000
    Si567    Si       0.99239    0.41385    0.66068    1.000
    N568     N        0.05713    0.40269    0.63266    1.000
    N569     N        0.01850    0.39607    0.68865    1.000
    N570     N        0.07471    0.39957    0.71206    1.000
    Si571    Si       0.03429    0.40003    0.73007    1.000
    Si572    Si       0.05782    0.38634    0.67313    1.000
    Si573    Si       0.11667    0.40196    0.72008    1.000
    N574     N        0.19160    0.39805    0.73865    1.000
    N575     N        0.15960    0.38301    0.62570    1.000
    Si576    Si       0.15187    0.40619    0.66213    1.000
    N577     N        0.14018    0.37595    0.69067    1.000
    N578     N        0.07955    0.39112    0.81164    1.000
    Si579    Si       0.00570    0.38655    0.86149    1.000
    Si580    Si       0.07360    0.37421    0.85319    1.000
    N581     N        0.00084    0.38487    0.81962    1.000
    Si582    Si       0.99662    0.38390    0.77763    1.000
    N583     N        0.02275    0.41951    0.76833    1.000
    N584     N        0.11479    0.37942    0.86971    1.000
    N585     N        0.12437    0.38602    0.75865    1.000
    N586     N        0.16047    0.40018    0.80592    1.000
    Si587    Si       0.20063    0.39296    0.82116    1.000
    N588     N        0.18381    0.37259    0.85587    1.000
    Si589    Si       0.23007    0.38624    0.75657    1.000
    Si590    Si       0.16900    0.37313    0.76784    1.000
    Si591    Si       0.14258    0.37432    0.83902    1.000
    N592     N        0.21140    0.36348    0.79000    1.000
    N593     N        0.04555    0.39969    0.87905    1.000
    Si594    Si       0.05672    0.37913    0.91728    1.000
    N595     N        0.09280    0.39542    0.93962    1.000
    Si596    Si       0.02233    0.36471    0.98438    1.000
    N597     N        0.02124    0.36674    0.93945    1.000
    Si598    Si       0.07945    0.42001    0.97593    1.000
    N599     N        0.05031    0.39723    0.99570    1.000
    N600     N        0.22383    0.41236    0.89396    1.000
    N601     N        0.16183    0.38440    0.92466    1.000
    Si602    Si       0.16218    0.41223    0.95896    1.000
    Si603    Si       0.18230    0.40234    0.88980    1.000
    Si604    Si       0.23460    0.40376    0.93596    1.000
    N605     N        0.14868    0.38952    0.99440    1.000
    Si606    Si       0.12046    0.36554    0.91245    1.000
    N607     N        0.22507    0.36366    0.95171    1.000
    Si608    Si       0.07651    0.46293    0.03375    1.000
    N609     N        0.10564    0.43978    0.00694    1.000
    N610     N        0.06223    0.43063    0.05923    1.000
    Si611    Si       0.06060    0.42435    0.10149    1.000
    N612     N        0.04784    0.46201    0.11597    1.000
    N613     N        0.10335    0.42280    0.11502    1.000
    N614     N        0.04537    0.47360    0.00678    1.000
    Si615    Si       0.00076    0.47524    0.00987    1.000
    Si616    Si       0.13296    0.44192    0.09063    1.000
    N617     N        0.17384    0.45179    0.00711    1.000
    N618     N        0.16764    0.45252    0.11509    1.000
    Si619    Si       0.14283    0.42315    0.02060    1.000
    N620     N        0.13447    0.47652    0.06235    1.000
    N621     N        0.99623    0.44088    0.22754    1.000
    N622     N        0.06328    0.45679    0.23068    1.000
    Si623    Si       0.02533    0.46879    0.21197    1.000
    N624     N        0.01459    0.45451    0.17158    1.000
    Si625    Si       0.00769    0.47202    0.13032    1.000
    Si626    Si       0.14307    0.47238    0.21844    1.000
    Si627    Si       0.21913    0.46666    0.20275    1.000
    N628     N        0.20493    0.43890    0.17402    1.000
    N629     N        0.23793    0.44081    0.23309    1.000
    Si630    Si       0.16401    0.43526    0.15602    1.000
    N631     N        0.13784    0.46055    0.17752    1.000
    N632     N        0.13491    0.43834    0.24388    1.000
    N633     N        0.18349    0.48545    0.22275    1.000
    N634     N        0.06435    0.46401    0.34296    1.000
    N635     N        0.02469    0.46167    0.29383    1.000
    N636     N        0.09395    0.45083    0.28779    1.000
    Si637    Si       0.05578    0.43355    0.30752    1.000
    Si638    Si       0.10774    0.46495    0.34673    1.000
    Si639    Si       0.99035    0.44809    0.27128    1.000
    Si640    Si       0.08825    0.42534    0.25084    1.000
    N641     N        0.13816    0.43716    0.32959    1.000
    Si642    Si       0.14711    0.44755    0.28666    1.000
    Si643    Si       0.22624    0.44191    0.27480    1.000
    N644     N        0.18579    0.42454    0.27858    1.000
    Si645    Si       0.16870    0.42321    0.35823    1.000
    N646     N        0.19164    0.45708    0.37267    1.000
    Si647    Si       0.04399    0.43875    0.37223    1.000
    N648     N        0.02198    0.46507    0.39921    1.000
    N649     N        0.05640    0.44111    0.46607    1.000
    Si650    Si       0.09906    0.45716    0.47075    1.000
    Si651    Si       0.02245    0.45859    0.44183    1.000
    N652     N        0.12042    0.46533    0.38891    1.000
    Si653    Si       0.11251    0.42231    0.40508    1.000
    N654     N        0.21595    0.45303    0.48635    1.000
    N655     N        0.11644    0.42407    0.44847    1.000
    Si656    Si       0.03060    0.43972    0.54095    1.000
    Si657    Si       0.04177    0.43869    0.61556    1.000
    N658     N        0.07231    0.46827    0.61445    1.000
    N659     N        0.11154    0.45811    0.51313    1.000
    N660     N        0.99110    0.43623    0.52050    1.000
    N661     N        0.04359    0.47885    0.52933    1.000
    N662     N        0.01686    0.42739    0.58036    1.000
    Si663    Si       0.11899    0.45671    0.60928    1.000
    Si664    Si       0.18889    0.46882    0.57420    1.000
    N665     N        0.16655    0.46302    0.61009    1.000
    N666     N        0.21158    0.43533    0.56257    1.000
    N667     N        0.11664    0.42481    0.57620    1.000
    Si668    Si       0.22251    0.42502    0.52016    1.000
    N669     N        0.00779    0.44902    0.64070    1.000
    N670     N        0.18946    0.42561    0.67459    1.000
    Si671    Si       0.12743    0.46399    0.68446    1.000
    Si672    Si       0.18495    0.43465    0.71743    1.000
    N673     N        0.12294    0.43801    0.65109    1.000
    Si674    Si       0.22617    0.44052    0.65527    1.000
    N675     N        0.14062    0.43608    0.71391    1.000
    N676     N        0.20942    0.46976    0.72808    1.000
    N677     N        0.04745    0.45496    0.82569    1.000
    N678     N        0.09285    0.44425    0.77176    1.000
    Si679    Si       0.06012    0.42633    0.79484    1.000
    Si680    Si       0.05136    0.44278    0.86867    1.000
    N681     N        0.22274    0.42918    0.82873    1.000
    N682     N        0.12488    0.45505    0.82580    1.000
    N683     N        0.15683    0.46276    0.77290    1.000
    Si684    Si       0.13091    0.42793    0.78702    1.000
    Si685    Si       0.12831    0.46360    0.86929    1.000
    Si686    Si       0.23525    0.44732    0.86772    1.000
    N687     N        0.06488    0.45071    0.94822    1.000
    Si688    Si       0.10025    0.43937    0.92535    1.000
    N689     N        0.09304    0.44812    0.88484    1.000
    N690     N        0.02552    0.47267    0.88935    1.000
    N691     N        0.20320    0.42727    0.95468    1.000
    Si692    Si       0.16476    0.47030    0.91969    1.000
    N693     N        0.13729    0.44593    0.94303    1.000
    Si694    Si       0.20904    0.46117    0.97903    1.000
    N695     N        0.16396    0.44178    0.88428    1.000
    N696     N        0.07022    0.49810    0.06036    1.000
    Si697    Si       0.05882    0.50086    0.10096    1.000
    N698     N        0.01922    0.51564    0.09312    1.000
    N699     N        0.09296    0.52333    0.11490    1.000
    Si700    Si       0.08120    0.53140    0.03689    1.000
    Si701    Si       0.01110    0.53502    0.05429    1.000
    Si702    Si       0.16437    0.48436    0.03319    1.000
    Si703    Si       0.19056    0.48573    0.10188    1.000
    N704     N        0.16312    0.51981    0.10581    1.000
    Si705    Si       0.12677    0.51721    0.08457    1.000
    N706     N        0.16520    0.51975    0.00785    1.000
    N707     N        0.19955    0.49008    0.05813    1.000
    Si708    Si       0.23832    0.49762    0.03975    1.000
    N709     N        0.23096    0.49222    0.11695    1.000
    N710     N        0.23182    0.49782    0.99482    1.000
    N711     N        0.11558    0.50122    0.23561    1.000
    N712     N        0.00680    0.50972    0.21523    1.000
    N713     N        0.06608    0.51326    0.28541    1.000
    Si714    Si       0.04176    0.49602    0.31971    1.000
    N715     N        0.00112    0.50255    0.33819    1.000
    Si716    Si       0.08420    0.48381    0.25906    1.000
    Si717    Si       0.09499    0.53968    0.35601    1.000
    N718     N        0.11548    0.50646    0.33564    1.000
    N719     N        0.16227    0.48896    0.28803    1.000
    Si720    Si       0.14869    0.52109    0.31166    1.000
    Si721    Si       0.19439    0.50232    0.26172    1.000
    N722     N        0.17796    0.52644    0.34310    1.000
    N723     N        0.22626    0.48291    0.28249    1.000
    Si724    Si       0.99950    0.49903    0.38247    1.000
    N725     N        0.02605    0.50070    0.46100    1.000
    N726     N        0.09781    0.53378    0.39929    1.000
    N727     N        0.11270    0.49470    0.45378    1.000
    N728     N        0.01724    0.53634    0.39701    1.000
    Si729    Si       0.02598    0.54126    0.43909    1.000
    Si730    Si       0.18207    0.50079    0.37711    1.000
    N731     N        0.23594    0.53412    0.44785    1.000
    N732     N        0.16553    0.51847    0.41226    1.000
    Si733    Si       0.13477    0.52243    0.47628    1.000
    Si734    Si       0.12298    0.50132    0.41186    1.000
    N735     N        0.22661    0.51087    0.38211    1.000
    N736     N        0.17632    0.51563    0.47531    1.000
    Si737    Si       0.19304    0.53859    0.44113    1.000
    Si738    Si       0.08551    0.50870    0.60715    1.000
    Si739    Si       0.02445    0.50701    0.50397    1.000
    N740     N        0.11760    0.49328    0.58224    1.000
    N741     N        0.12408    0.52686    0.51727    1.000
    Si742    Si       0.12861    0.48993    0.53981    1.000
    N743     N        0.22027    0.49759    0.58251    1.000
    N744     N        0.22915    0.51635    0.51486    1.000
    Si745    Si       0.19757    0.49003    0.50253    1.000
    Si746    Si       0.23712    0.52895    0.55545    1.000
    N747     N        0.17129    0.48166    0.53711    1.000
    N748     N        0.01801    0.52268    0.62550    1.000
    N749     N        0.03344    0.49668    0.68644    1.000
    Si750    Si       0.07331    0.51106    0.68538    1.000
    N751     N        0.09938    0.51759    0.64902    1.000
    Si752    Si       0.01732    0.49428    0.72718    1.000
    Si753    Si       0.00626    0.49303    0.65318    1.000
    N754     N        0.09665    0.48432    0.71056    1.000
    N755     N        0.17407    0.52845    0.74779    1.000
    Si756    Si       0.17983    0.49331    0.63880    1.000
    N757     N        0.22299    0.48282    0.64893    1.000
    Si758    Si       0.23691    0.52328    0.66763    1.000
    N759     N        0.15811    0.49373    0.67804    1.000
    N760     N        0.17012    0.53504    0.62665    1.000
    Si761    Si       0.17208    0.52680    0.70414    1.000
    N762     N        0.10570    0.51122    0.77817    1.000
    Si763    Si       0.02919    0.48886    0.80331    1.000
    N764     N        0.04396    0.48951    0.76033    1.000
    N765     N        0.04597    0.52733    0.81540    1.000
    Si766    Si       0.08674    0.48148    0.75324    1.000
    Si767    Si       0.18744    0.49003    0.76178    1.000
    N768     N        0.15755    0.51619    0.82088    1.000
    Si769    Si       0.20161    0.50724    0.82859    1.000
    Si770    Si       0.13267    0.48736    0.79849    1.000
    N771     N        0.21654    0.48806    0.79420    1.000
    N772     N        0.21969    0.48858    0.86552    1.000
    N773     N        0.99879    0.48771    0.96841    1.000
    N774     N        0.04804    0.52061    0.94158    1.000
    Si775    Si       0.03966    0.51219    0.90124    1.000
    N776     N        0.07745    0.52862    0.87804    1.000
    Si777    Si       0.04187    0.48364    0.96369    1.000
    N778     N        0.09751    0.52660    0.99750    1.000
    Si779    Si       0.11861    0.53672    0.89632    1.000
    N780     N        0.19095    0.49267    0.94793    1.000
    Si781    Si       0.23409    0.52876    0.87720    1.000
    Si782    Si       0.19877    0.52358    0.97975    1.000
    N783     N        0.13643    0.49849    0.89464    1.000
    N784     N        0.04468    0.55305    0.03666    1.000
    Si785    Si       0.04945    0.59114    0.01805    1.000
    N786     N        0.12033    0.54455    0.05339    1.000
    N787     N        0.20796    0.58208    0.04850    1.000
    Si788    Si       0.13452    0.54969    0.01162    1.000
    Si789    Si       0.21065    0.59433    0.00509    1.000
    N790     N        0.17939    0.59481    0.10992    1.000
    Si791    Si       0.10028    0.56494    0.13083    1.000
    N792     N        0.02347    0.57687    0.20919    1.000
    N793     N        0.00552    0.56737    0.14065    1.000
    N794     N        0.06824    0.58236    0.15883    1.000
    N795     N        0.09844    0.57323    0.22045    1.000
    Si796    Si       0.00569    0.54864    0.23806    1.000
    Si797    Si       0.06469    0.59396    0.20076    1.000
    Si798    Si       0.99087    0.57740    0.18038    1.000
    N799     N        0.23150    0.57781    0.20306    1.000
    Si800    Si       0.13158    0.58011    0.18926    1.000
    N801     N        0.15936    0.55222    0.21338    1.000
    Si802    Si       0.22813    0.59144    0.16095    1.000
    N803     N        0.21557    0.55285    0.14413    1.000
    Si804    Si       0.19762    0.56619    0.22540    1.000
    N805     N        0.13925    0.56323    0.14909    1.000
    Si806    Si       0.17656    0.55516    0.12522    1.000
    Si807    Si       0.12506    0.54331    0.24079    1.000
    Si808    Si       0.05703    0.55342    0.29552    1.000
    N809     N        0.01576    0.55276    0.28284    1.000
    Si810    Si       0.02573    0.56192    0.36408    1.000
    N811     N        0.07309    0.59296    0.29557    1.000
    N812     N        0.11290    0.57802    0.34451    1.000
    N813     N        0.05467    0.54020    0.34045    1.000
    N814     N        0.99094    0.57376    0.34056    1.000
    Si815    Si       0.11597    0.58542    0.30198    1.000
    N816     N        0.13101    0.54897    0.28338    1.000
    Si817    Si       0.21741    0.54406    0.35424    1.000
    Si818    Si       0.23423    0.56331    0.28650    1.000
    N819     N        0.20740    0.54268    0.25982    1.000
    N820     N        0.21626    0.58433    0.36843    1.000
    Si821    Si       0.09804    0.56745    0.42939    1.000
    N822     N        0.06038    0.56469    0.45444    1.000
    N823     N        0.19150    0.58169    0.43607    1.000
    N824     N        0.13028    0.56193    0.45674    1.000
    Si825    Si       0.16089    0.59520    0.46368    1.000
    Si826    Si       0.00924    0.57838    0.53516    1.000
    N827     N        0.00770    0.57282    0.58037    1.000
    Si828    Si       0.03795    0.55880    0.60735    1.000
    Si829    Si       0.10782    0.57801    0.58835    1.000
    N830     N        0.07601    0.54786    0.58880    1.000
    N831     N        0.09706    0.58943    0.51749    1.000
    N832     N        0.03582    0.54718    0.51642    1.000
    Si833    Si       0.06037    0.57651    0.49531    1.000
    Si834    Si       0.13548    0.56799    0.52655    1.000
    N835     N        0.14351    0.56796    0.57018    1.000
    N836     N        0.21010    0.56258    0.56075    1.000
    Si837    Si       0.18153    0.56393    0.59397    1.000
    N838     N        0.17014    0.58447    0.50702    1.000
    Si839    Si       0.21096    0.58968    0.52673    1.000
    Si840    Si       0.03662    0.56438    0.73008    1.000
    N841     N        0.07091    0.55032    0.70762    1.000
    Si842    Si       0.10495    0.57446    0.71611    1.000
    N843     N        0.04378    0.58660    0.64081    1.000
    N844     N        0.00373    0.53574    0.73198    1.000
    N845     N        0.13828    0.55538    0.69439    1.000
    Si846    Si       0.20638    0.59076    0.70117    1.000
    Si847    Si       0.13341    0.54610    0.65113    1.000
    N848     N        0.11698    0.58113    0.63341    1.000
    N849     N        0.20776    0.54862    0.68896    1.000
    N850     N        0.05936    0.57154    0.76658    1.000
    N851     N        0.10175    0.57030    0.81630    1.000
    Si852    Si       0.04886    0.55179    0.85242    1.000
    Si853    Si       0.07749    0.54152    0.79079    1.000
    N854     N        0.05486    0.59537    0.86019    1.000
    N855     N        0.16944    0.57832    0.80287    1.000
    Si856    Si       0.20658    0.58457    0.82375    1.000
    Si857    Si       0.16397    0.56824    0.76115    1.000
    Si858    Si       0.14110    0.55613    0.82550    1.000
    N859     N        0.21801    0.54656    0.83961    1.000
    N860     N        0.12369    0.58889    0.75326    1.000
    N861     N        0.14300    0.56228    0.87058    1.000
    N862     N        0.05964    0.58067    0.97721    1.000
    Si863    Si       0.07757    0.54448    0.96168    1.000
    N864     N        0.01358    0.54011    0.87876    1.000
    N865     N        0.10943    0.55484    0.93363    1.000
    N866     N        0.21500    0.54991    0.90745    1.000
    N867     N        0.13545    0.58659    0.99180    1.000
    Si868    Si       0.13394    0.59043    0.94784    1.000
    N869     N        0.20085    0.56637    0.97296    1.000
    Si870    Si       0.20837    0.58284    0.93507    1.000
    N871     N        0.16894    0.59861    0.92292    1.000
    Si872    Si       0.08242    0.62131    0.07840    1.000
    N873     N        0.01161    0.61229    0.03294    1.000
    Si874    Si       0.00616    0.60321    0.07352    1.000
    N875     N        0.08571    0.60643    0.03635    1.000
    N876     N        0.04534    0.60373    0.09199    1.000
    N877     N        0.11016    0.59850    0.10613    1.000
    Si878    Si       0.12350    0.61688    0.01945    1.000
    N879     N        0.22510    0.64315    0.07319    1.000
    N880     N        0.15274    0.62638    0.05313    1.000
    Si881    Si       0.19075    0.61492    0.07080    1.000
    N882     N        0.14922    0.65466    0.11539    1.000
    N883     N        0.03056    0.64005    0.14277    1.000
    N884     N        0.07046    0.63757    0.19836    1.000
    Si885    Si       0.03626    0.59781    0.13405    1.000
    Si886    Si       0.11110    0.65164    0.19613    1.000
    N887     N        0.18672    0.60750    0.23711    1.000
    N888     N        0.20668    0.62887    0.17162    1.000
    Si889    Si       0.21719    0.62853    0.21387    1.000
    Si890    Si       0.14361    0.61330    0.12969    1.000
    N891     N        0.13160    0.62078    0.17369    1.000
    Si892    Si       0.06364    0.63272    0.31095    1.000
    N893     N        0.09091    0.64366    0.34389    1.000
    N894     N        0.02145    0.63721    0.32114    1.000
    Si895    Si       0.01842    0.63184    0.36483    1.000
    Si896    Si       0.23093    0.61390    0.33806    1.000
    Si897    Si       0.17867    0.61763    0.27772    1.000
    N898     N        0.13602    0.61973    0.28748    1.000
    N899     N        0.21291    0.59867    0.29948    1.000
    Si900    Si       0.08802    0.60894    0.36763    1.000
    N901     N        0.04649    0.59965    0.37307    1.000
    N902     N        0.07346    0.63957    0.46727    1.000
    Si903    Si       0.10367    0.63568    0.43622    1.000
    N904     N        0.10430    0.60509    0.40909    1.000
    N905     N        0.20859    0.64499    0.41068    1.000
    Si906    Si       0.21892    0.60181    0.40948    1.000
    N907     N        0.14050    0.63342    0.45977    1.000
    Si908    Si       0.10244    0.62796    0.53788    1.000
    N909     N        0.09977    0.61953    0.58101    1.000
    N910     N        0.02560    0.60644    0.50664    1.000
    Si911    Si       0.04221    0.64456    0.49969    1.000
    Si912    Si       0.10473    0.65444    0.60576    1.000
    N913     N        0.06604    0.65129    0.53542    1.000
    N914     N        0.21153    0.63075    0.54052    1.000
    N915     N        0.13775    0.65032    0.52748    1.000
    N916     N        0.19212    0.60499    0.60814    1.000
    N917     N        0.01124    0.64958    0.66369    1.000
    Si918    Si       0.09238    0.64862    0.71442    1.000
    Si919    Si       0.08286    0.60275    0.65327    1.000
    Si920    Si       0.01202    0.60549    0.66482    1.000
    N921     N        0.09128    0.60992    0.69583    1.000
    N922     N        0.07871    0.64421    0.64067    1.000
    N923     N        0.01430    0.59627    0.70830    1.000
    Si924    Si       0.14989    0.62695    0.74743    1.000
    N925     N        0.18663    0.61620    0.67255    1.000
    Si926    Si       0.17792    0.63342    0.63407    1.000
    N927     N        0.13363    0.65561    0.71777    1.000
    N928     N        0.18279    0.59952    0.73709    1.000
    N929     N        0.09141    0.63263    0.81519    1.000
    N930     N        0.07938    0.64052    0.75603    1.000
    Si931    Si       0.08863    0.60168    0.78076    1.000
    Si932    Si       0.09679    0.60467    0.84776    1.000
    N933     N        0.99679    0.64433    0.86813    1.000
    N934     N        0.19507    0.61331    0.85472    1.000
    Si935    Si       0.22837    0.64519    0.85546    1.000
    N936     N        0.15243    0.65641    0.77901    1.000
    Si937    Si       0.10520    0.64787    0.90435    1.000
    N938     N        0.02927    0.61714    0.92446    1.000
    Si939    Si       0.00667    0.64526    0.94883    1.000
    N940     N        0.10229    0.61890    0.93628    1.000
    Si941    Si       0.03603    0.62704    0.88308    1.000
    Si942    Si       0.06223    0.61591    0.95397    1.000
    N943     N        0.04343    0.64947    0.97479    1.000
    N944     N        0.11827    0.65067    0.99482    1.000
    N945     N        0.12483    0.62324    0.87372    1.000
    Si946    Si       0.16152    0.60169    0.87880    1.000
    N947     N        0.23273    0.65433    0.89699    1.000
    N948     N        0.19834    0.63454    0.00015    1.000
    N949     N        0.05014    0.69188    0.03217    1.000
    N950     N        0.01565    0.68494    0.08711    1.000
    Si951    Si       0.08155    0.70079    0.06129    1.000
    Si952    Si       0.00655    0.69636    0.04583    1.000
    N953     N        0.09666    0.66309    0.07621    1.000
    Si954    Si       0.00114    0.66188    0.11909    1.000
    Si955    Si       0.21362    0.68391    0.06355    1.000
    N956     N        0.17175    0.69266    0.05932    1.000
    N957     N        0.22821    0.69084    0.02340    1.000
    Si958    Si       0.14110    0.66494    0.07193    1.000
    N959     N        0.22168    0.71798    0.08841    1.000
    N960     N        0.05097    0.70265    0.17333    1.000
    N961     N        0.00436    0.66305    0.19965    1.000
    Si962    Si       0.04193    0.66271    0.17988    1.000
    N963     N        0.11396    0.68612    0.16938    1.000
    Si964    Si       0.14196    0.69050    0.13851    1.000
    N965     N        0.17981    0.70312    0.15571    1.000
    Si966    Si       0.20824    0.67280    0.17094    1.000
    Si967    Si       0.17440    0.67861    0.24035    1.000
    N968     N        0.20612    0.67149    0.21371    1.000
    N969     N        0.13278    0.66025    0.23488    1.000
    Si970    Si       0.03790    0.68532    0.27814    1.000
    Si971    Si       0.00683    0.69721    0.34724    1.000
    N972     N        0.99787    0.66995    0.26733    1.000
    N973     N        0.07171    0.65941    0.27806    1.000
    N974     N        0.03538    0.70818    0.31702    1.000
    N975     N        0.09629    0.71145    0.36245    1.000
    Si976    Si       0.11628    0.65897    0.27430    1.000
    Si977    Si       0.11881    0.67752    0.34389    1.000
    N978     N        0.12944    0.69109    0.30274    1.000
    Si979    Si       0.21846    0.67781    0.30514    1.000
    N980     N        0.19022    0.66314    0.27666    1.000
    N981     N        0.15432    0.66852    0.36501    1.000
    N982     N        0.21625    0.65398    0.34155    1.000
    Si983    Si       0.00929    0.70171    0.40858    1.000
    Si984    Si       0.07032    0.69353    0.39132    1.000
    N985     N        0.03017    0.67495    0.37886    1.000
    Si986    Si       0.07175    0.68564    0.45935    1.000
    N987     N        0.09535    0.67281    0.41911    1.000
    N988     N        0.11088    0.69655    0.48064    1.000
    N989     N        0.03804    0.68763    0.48986    1.000
    N990     N        0.04912    0.71395    0.42647    1.000
    N991     N        0.20878    0.71079    0.38616    1.000
    N992     N        0.18196    0.67887    0.49591    1.000
    Si993    Si       0.22531    0.68356    0.48612    1.000
    Si994    Si       0.19504    0.67047    0.37652    1.000
    Si995    Si       0.14077    0.66650    0.48705    1.000
    N996     N        0.08974    0.68947    0.58991    1.000
    N997     N        0.01765    0.69348    0.55888    1.000
    Si998    Si       0.06190    0.69042    0.55594    1.000
    Si999    Si       0.01059    0.70813    0.51840    1.000
    N1000    N        0.18879    0.69172    0.56463    1.000
    Si1001   Si       0.17473    0.69069    0.60494    1.000
    Si1002   Si       0.17941    0.65878    0.53575    1.000
    N1003    N        0.14742    0.65874    0.61293    1.000
    N1004    N        0.06895    0.68131    0.70188    1.000
    Si1005   Si       0.05203    0.67030    0.66281    1.000
    N1006    N        0.04960    0.70814    0.64227    1.000
    N1007    N        0.20460    0.68167    0.71406    1.000
    Si1008   Si       0.16024    0.68828    0.71495    1.000
    Si1009   Si       0.20683    0.69809    0.67157    1.000
    Si1010   Si       0.23395    0.68953    0.74443    1.000
    N1011    N        0.20369    0.67171    0.63627    1.000
    N1012    N        0.16027    0.70760    0.67575    1.000
    N1013    N        0.05672    0.69281    0.81797    1.000
    Si1014   Si       0.07898    0.66721    0.78879    1.000
    Si1015   Si       0.05877    0.69469    0.86162    1.000
    N1016    N        0.03054    0.70616    0.75885    1.000
    N1017    N        0.09707    0.70535    0.77610    1.000
    Si1018   Si       0.99306    0.69009    0.77081    1.000
    N1019    N        0.21479    0.68049    0.83522    1.000
    Si1020   Si       0.14035    0.69809    0.78064    1.000
    Si1021   Si       0.18491    0.70970    0.84557    1.000
    N1022    N        0.22001    0.71373    0.77789    1.000
    Si1023   Si       0.23951    0.71399    0.81558    1.000
    N1024    N        0.15731    0.71762    0.81588    1.000
    N1025    N        0.01728    0.70978    0.86901    1.000
    N1026    N        0.06830    0.65760    0.88241    1.000
    Si1027   Si       0.05412    0.68930    0.98712    1.000
    N1028    N        0.09041    0.71038    0.97555    1.000
    N1029    N        0.23111    0.68053    0.95960    1.000
    N1030    N        0.12264    0.68188    0.92544    1.000
    Si1031   Si       0.20180    0.67508    0.99215    1.000
    Si1032   Si       0.12708    0.68421    0.96985    1.000
    N1033    N        0.16539    0.69598    0.98984    1.000
    Si1034   Si       0.02576    0.74924    0.00889    1.000
    N1035    N        0.07147    0.73249    0.08535    1.000
    N1036    N        0.00254    0.73865    0.04331    1.000
    Si1037   Si       0.10548    0.75310    0.10635    1.000
    N1038    N        0.06495    0.76654    0.01157    1.000
    Si1039   Si       0.09766    0.74101    0.00540    1.000
    N1040    N        0.11522    0.71457    0.03709    1.000
    Si1041   Si       0.17743    0.73336    0.09109    1.000
    N1042    N        0.17111    0.75724    0.05527    1.000
    Si1043   Si       0.15579    0.72473    0.02543    1.000
    N1044    N        0.13565    0.72103    0.10715    1.000
    N1045    N        0.18420    0.76187    0.12185    1.000
    Si1046   Si       0.07190    0.74268    0.24009    1.000
    N1047    N        0.09153    0.75670    0.14627    1.000
    N1048    N        0.10352    0.73936    0.21125    1.000
    Si1049   Si       0.09004    0.72145    0.17465    1.000
    Si1050   Si       0.00972    0.75183    0.24024    1.000
    N1051    N        0.17128    0.76337    0.19339    1.000
    N1052    N        0.23363    0.74696    0.16629    1.000
    Si1053   Si       0.19139    0.74470    0.16095    1.000
    Si1054   Si       0.14543    0.75143    0.22442    1.000
    Si1055   Si       0.06159    0.74280    0.31375    1.000
    N1056    N        0.08717    0.74882    0.27970    1.000
    N1057    N        0.03851    0.71648    0.24863    1.000
    N1058    N        0.08750    0.77319    0.33613    1.000
    N1059    N        0.15130    0.76046    0.31118    1.000
    Si1060   Si       0.22102    0.73470    0.34857    1.000
    Si1061   Si       0.16046    0.72090    0.29365    1.000
    N1062    N        0.16179    0.72002    0.25062    1.000
    N1063    N        0.19906    0.71647    0.31504    1.000
    Si1064   Si       0.11187    0.75331    0.36792    1.000
    N1065    N        0.08066    0.76449    0.47611    1.000
    N1066    N        0.08394    0.76883    0.40048    1.000
    Si1067   Si       0.06184    0.75564    0.43557    1.000
    N1068    N        0.14823    0.77063    0.37988    1.000
    Si1069   Si       0.23036    0.75325    0.48069    1.000
    Si1070   Si       0.23616    0.71847    0.41714    1.000
    N1071    N        0.22792    0.71646    0.45943    1.000
    N1072    N        0.05761    0.74929    0.59227    1.000
    Si1073   Si       0.05058    0.75789    0.54890    1.000
    N1074    N        0.01226    0.74989    0.52887    1.000
    N1075    N        0.07544    0.72488    0.53273    1.000
    Si1076   Si       0.08039    0.72363    0.61782    1.000
    Si1077   Si       0.10320    0.73458    0.50103    1.000
    N1078    N        0.20785    0.74861    0.51850    1.000
    Si1079   Si       0.19837    0.75797    0.59869    1.000
    N1080    N        0.13738    0.75411    0.51378    1.000
    N1081    N        0.17078    0.73126    0.61637    1.000
    N1082    N        0.23459    0.74004    0.58238    1.000
    Si1083   Si       0.21929    0.71882    0.54762    1.000
    Si1084   Si       0.17414    0.77491    0.52525    1.000
    Si1085   Si       0.00973    0.72044    0.65100    1.000
    N1086    N        0.00394    0.76125    0.64136    1.000
    N1087    N        0.10531    0.74557    0.64674    1.000
    N1088    N        0.05996    0.75416    0.70235    1.000
    Si1089   Si       0.04729    0.71564    0.71718    1.000
    N1090    N        0.00800    0.71369    0.69337    1.000
    Si1091   Si       0.14820    0.74274    0.65127    1.000
    N1092    N        0.22400    0.74016    0.67213    1.000
    N1093    N        0.02341    0.74724    0.81549    1.000
    Si1094   Si       0.05624    0.72872    0.78854    1.000
    Si1095   Si       0.08411    0.76553    0.85982    1.000
    N1096    N        0.06119    0.76679    0.76460    1.000
    N1097    N        0.09987    0.76685    0.81744    1.000
    Si1098   Si       0.99005    0.72374    0.83247    1.000
    Si1099   Si       0.19195    0.74475    0.76437    1.000
    Si1100   Si       0.14357    0.75971    0.82007    1.000
    N1101    N        0.21741    0.74090    0.84391    1.000
    N1102    N        0.15931    0.71870    0.74754    1.000
    N1103    N        0.22076    0.77002    0.74257    1.000
    Si1104   Si       0.98949    0.71815    0.95240    1.000
    N1105    N        0.09014    0.72538    0.87328    1.000
    N1106    N        0.99974    0.75240    0.92724    1.000
    Si1107   Si       0.01683    0.75010    0.88815    1.000
    N1108    N        0.02232    0.71709    0.98007    1.000
    Si1109   Si       0.16980    0.75712    0.89403    1.000
    N1110    N        0.23140    0.75105    0.97626    1.000
    Si1111   Si       0.23513    0.77090    0.87268    1.000
    Si1112   Si       0.12245    0.71817    0.90204    1.000
    N1113    N        0.20882    0.76238    0.90845    1.000
    N1114    N        0.13484    0.75580    0.92495    1.000
    N1115    N        0.16181    0.71714    0.88192    1.000
    N1116    N        0.13880    0.75627    0.99761    1.000
    N1117    N        0.02511    0.80670    0.04699    1.000
    N1118    N        0.06125    0.80644    0.10517    1.000
    Si1119   Si       0.05997    0.80815    0.02097    1.000
    Si1120   Si       0.02215    0.80944    0.08914    1.000
    N1121    N        0.09693    0.82342    0.04032    1.000
    N1122    N        0.99405    0.78009    0.10533    1.000
    Si1123   Si       0.09410    0.82846    0.08342    1.000
    Si1124   Si       0.98974    0.80632    0.02239    1.000
    N1125    N        0.12032    0.78952    0.08615    1.000
    N1126    N        0.18029    0.82176    0.09030    1.000
    Si1127   Si       0.15779    0.79605    0.06354    1.000
    N1128    N        0.16255    0.81820    0.02660    1.000
    Si1129   Si       0.20626    0.79876    0.11718    1.000
    Si1130   Si       0.19615    0.82161    0.99975    1.000
    N1131    N        0.23548    0.80672    0.01505    1.000
    Si1132   Si       0.06479    0.78959    0.14639    1.000
    N1133    N        0.07664    0.81641    0.17868    1.000
    Si1134   Si       0.03994    0.80629    0.20062    1.000
    N1135    N        0.02319    0.78835    0.16384    1.000
    N1136    N        0.04593    0.77541    0.22841    1.000
    N1137    N        0.00922    0.83236    0.21646    1.000
    N1138    N        0.19595    0.82472    0.22424    1.000
    N1139    N        0.14357    0.83060    0.18252    1.000
    Si1140   Si       0.17937    0.80672    0.18962    1.000
    N1141    N        0.21003    0.81292    0.15783    1.000
    Si1142   Si       0.05675    0.80577    0.32478    1.000
    N1143    N        0.04221    0.81663    0.36446    1.000
    Si1144   Si       0.00037    0.82322    0.36012    1.000
    Si1145   Si       0.98678    0.78255    0.30300    1.000
    N1146    N        0.11565    0.82185    0.30079    1.000
    N1147    N        0.02913    0.77387    0.31155    1.000
    Si1148   Si       0.11662    0.77822    0.29432    1.000
    Si1149   Si       0.22573    0.81242    0.25594    1.000
    N1150    N        0.19185    0.80976    0.28434    1.000
    Si1151   Si       0.18321    0.78932    0.32131    1.000
    N1152    N        0.17057    0.82459    0.34930    1.000
    Si1153   Si       0.16160    0.82049    0.25537    1.000
    N1154    N        0.22067    0.77692    0.33939    1.000
    N1155    N        0.13695    0.78625    0.24844    1.000
    Si1156   Si       0.03614    0.82130    0.44509    1.000
    Si1157   Si       0.07709    0.80965    0.38785    1.000
    N1158    N        0.02472    0.78026    0.43612    1.000
    N1159    N        0.07587    0.82780    0.42744    1.000
    N1160    N        0.11213    0.82670    0.49015    1.000
    N1161    N        0.04127    0.82958    0.48708    1.000
    N1162    N        0.20511    0.81661    0.39999    1.000
    Si1163   Si       0.11542    0.83069    0.44654    1.000
    Si1164   Si       0.16242    0.80909    0.39209    1.000
    N1165    N        0.15141    0.81435    0.43317    1.000
    N1166    N        0.21690    0.78448    0.45553    1.000
    Si1167   Si       0.18975    0.81687    0.45531    1.000
    N1168    N        0.06529    0.79729    0.54001    1.000
    N1169    N        0.02268    0.80843    0.59344    1.000
    Si1170   Si       0.03792    0.77853    0.62023    1.000
    Si1171   Si       0.04610    0.82985    0.56285    1.000
    Si1172   Si       0.07530    0.80430    0.49705    1.000
    Si1173   Si       0.20237    0.81393    0.58785    1.000
    N1174    N        0.17638    0.78336    0.56941    1.000
    N1175    N        0.17644    0.81071    0.49918    1.000
    N1176    N        0.23666    0.80700    0.55984    1.000
    N1177    N        0.04545    0.82198    0.71845    1.000
    N1178    N        0.06808    0.79934    0.64415    1.000
    Si1179   Si       0.03804    0.78014    0.72905    1.000
    N1180    N        0.10965    0.80576    0.69399    1.000
    Si1181   Si       0.08974    0.83052    0.72422    1.000
    N1182    N        0.99622    0.77199    0.72814    1.000
    Si1183   Si       0.08693    0.77430    0.67534    1.000
    N1184    N        0.21573    0.79042    0.62208    1.000
    Si1185   Si       0.22103    0.81308    0.73397    1.000
    N1186    N        0.16516    0.78029    0.66661    1.000
    N1187    N        0.22446    0.81256    0.69153    1.000
    Si1188   Si       0.14612    0.81841    0.67225    1.000
    Si1189   Si       0.21085    0.77991    0.66358    1.000
    N1190    N        0.04889    0.81422    0.81554    1.000
    Si1191   Si       0.07892    0.79386    0.79191    1.000
    Si1192   Si       0.01813    0.78701    0.83109    1.000
    N1193    N        0.10020    0.82179    0.76495    1.000
    N1194    N        0.04256    0.77789    0.87071    1.000
    Si1195   Si       0.13451    0.81683    0.85885    1.000
    Si1196   Si       0.17297    0.81856    0.78728    1.000
    N1197    N        0.15635    0.77785    0.85781    1.000
    N1198    N        0.14125    0.83213    0.81593    1.000
    N1199    N        0.20755    0.83086    0.81123    1.000
    N1200    N        0.16903    0.77523    0.78712    1.000
    N1201    N        0.09939    0.80255    0.87789    1.000
    Si1202   Si       0.01286    0.79001    0.94693    1.000
    N1203    N        0.05203    0.80649    0.93319    1.000
    Si1204   Si       0.06055    0.81488    0.89096    1.000
    N1205    N        0.00512    0.78292    0.98824    1.000
    Si1206   Si       0.07733    0.83111    0.95814    1.000
    N1207    N        0.11534    0.81506    0.97198    1.000
    Si1208   Si       0.21570    0.78106    0.94778    1.000
    Si1209   Si       0.14143    0.78224    0.96111    1.000
    N1210    N        0.22829    0.81404    0.87418    1.000
    N1211    N        0.18153    0.80043    0.96423    1.000
    N1212    N        0.00309    0.84760    0.09624    1.000
    N1213    N        0.06463    0.86937    0.07754    1.000
    Si1214   Si       0.02221    0.88174    0.07403    1.000
    N1215    N        0.23449    0.85993    0.06081    1.000
    N1216    N        0.12244    0.86037    0.09922    1.000
    Si1217   Si       0.16622    0.86391    0.09742    1.000
    Si1218   Si       0.20724    0.88264    0.03442    1.000
    N1219    N        0.17281    0.88691    0.06034    1.000
    N1220    N        0.12667    0.87643    0.00290    1.000
    Si1221   Si       0.12615    0.83389    0.01048    1.000
    N1222    N        0.07146    0.85085    0.23127    1.000
    Si1223   Si       0.03163    0.86787    0.22603    1.000
    Si1224   Si       0.10221    0.84582    0.19909    1.000
    N1225    N        0.10863    0.88429    0.17848    1.000
    N1226    N        0.17728    0.87844    0.13692    1.000
    Si1227   Si       0.21459    0.86829    0.22245    1.000
    Si1228   Si       0.15204    0.87152    0.17199    1.000
    N1229    N        0.17212    0.88758    0.20592    1.000
    N1230    N        0.23150    0.87278    0.18088    1.000
    Si1231   Si       0.15976    0.88906    0.24818    1.000
    Si1232   Si       0.09445    0.84824    0.27024    1.000
    Si1233   Si       0.04724    0.88176    0.29488    1.000
    N1234    N        0.05379    0.83882    0.29611    1.000
    N1235    N        0.08882    0.89147    0.28357    1.000
    N1236    N        0.02104    0.89244    0.26071    1.000
    N1237    N        0.14212    0.88093    0.32194    1.000
    Si1238   Si       0.20818    0.84285    0.36673    1.000
    Si1239   Si       0.13249    0.84150    0.33553    1.000
    N1240    N        0.20140    0.88242    0.26100    1.000
    N1241    N        0.13442    0.85426    0.24794    1.000
    Si1242   Si       0.10265    0.87450    0.39971    1.000
    N1243    N        0.00267    0.84629    0.43572    1.000
    N1244    N        0.06233    0.88954    0.39542    1.000
    N1245    N        0.10969    0.83685    0.37401    1.000
    N1246    N        0.99253    0.86619    0.37009    1.000
    Si1247   Si       0.98933    0.87816    0.41096    1.000
    N1248    N        0.21131    0.85587    0.46099    1.000
    N1249    N        0.12115    0.87331    0.43762    1.000
    Si1250   Si       0.20735    0.88343    0.49527    1.000
    N1251    N        0.19467    0.88104    0.37362    1.000
    N1252    N        0.16302    0.88336    0.49239    1.000
    N1253    N        0.01747    0.85550    0.54333    1.000
    N1254    N        0.07974    0.84637    0.58593    1.000
    N1255    N        0.99733    0.86667    0.60629    1.000
    Si1256   Si       0.01159    0.86008    0.49944    1.000
    Si1257   Si       0.11473    0.86844    0.56948    1.000
    Si1258   Si       0.14793    0.84262    0.50764    1.000
    N1259    N        0.14761    0.84803    0.54950    1.000
    N1260    N        0.21679    0.86456    0.53258    1.000
    N1261    N        0.19501    0.85540    0.59897    1.000
    Si1262   Si       0.18397    0.87358    0.55991    1.000
    Si1263   Si       0.22444    0.88261    0.61839    1.000
    N1264    N        0.13850    0.88729    0.60187    1.000
    Si1265   Si       0.08325    0.83804    0.62941    1.000
    N1266    N        0.06352    0.87170    0.64888    1.000
    N1267    N        0.09716    0.87255    0.71130    1.000
    Si1268   Si       0.02238    0.85869    0.71109    1.000
    N1269    N        0.00259    0.85349    0.67090    1.000
    Si1270   Si       0.02077    0.87827    0.64118    1.000
    N1271    N        0.99216    0.87672    0.73831    1.000
    Si1272   Si       0.16074    0.86052    0.62832    1.000
    N1273    N        0.12813    0.83157    0.63427    1.000
    N1274    N        0.22998    0.87905    0.70366    1.000
    N1275    N        0.17037    0.85432    0.66993    1.000
    Si1276   Si       0.19292    0.88757    0.68595    1.000
    N1277    N        0.08345    0.87247    0.81361    1.000
    N1278    N        0.01131    0.87553    0.81897    1.000
    Si1279   Si       0.04672    0.85583    0.83094    1.000
    Si1280   Si       0.11362    0.85206    0.78890    1.000
    N1281    N        0.20683    0.87822    0.85461    1.000
    N1282    N        0.13802    0.88052    0.76742    1.000
    Si1283   Si       0.19654    0.83641    0.85328    1.000
    Si1284   Si       0.17807    0.87653    0.75164    1.000
    N1285    N        0.18622    0.83369    0.74667    1.000
    N1286    N        0.05294    0.85258    0.87434    1.000
    N1287    N        0.08677    0.86720    0.93542    1.000
    Si1288   Si       0.07325    0.88376    0.89901    1.000
    N1289    N        0.05044    0.84040    0.99338    1.000
    N1290    N        0.00616    0.88583    0.95637    1.000
    Si1291   Si       0.01585    0.86844    0.99570    1.000
    N1292    N        0.20062    0.86418    0.99392    1.000
    N1293    N        0.22728    0.86894    0.92705    1.000
    Si1294   Si       0.12081    0.88529    0.96004    1.000
    N1295    N        0.16037    0.84323    0.88082    1.000
    N1296    N        0.15695    0.88063    0.93796    1.000
    Si1297   Si       0.14885    0.88387    0.89510    1.000
    Si1298   Si       0.19687    0.88191    0.95496    1.000
    N1299    N        0.01765    0.92012    0.09402    1.000
    N1300    N        0.01452    0.89426    0.03197    1.000
    Si1301   Si       0.05001    0.94773    0.10004    1.000
    N1302    N        0.08160    0.92171    0.11855    1.000
    Si1303   Si       0.09726    0.89459    0.08939    1.000
    N1304    N        0.11179    0.92073    0.05732    1.000
    N1305    N        0.23110    0.91818    0.02840    1.000
    N1306    N        0.16266    0.93701    0.01312    1.000
    Si1307   Si       0.14145    0.90420    0.03217    1.000
    N1308    N        0.23113    0.91174    0.11484    1.000
    Si1309   Si       0.09342    0.92187    0.16194    1.000
    Si1310   Si       0.02786    0.94119    0.19417    1.000
    N1311    N        0.03041    0.89873    0.19431    1.000
    N1312    N        0.99162    0.94854    0.16831    1.000
    N1313    N        0.12649    0.94961    0.16520    1.000
    Si1314   Si       0.21189    0.89977    0.15513    1.000
    N1315    N        0.20408    0.93649    0.17403    1.000
    Si1316   Si       0.22379    0.95016    0.21241    1.000
    N1317    N        0.03619    0.90530    0.32905    1.000
    Si1318   Si       0.06384    0.94141    0.33580    1.000
    N1319    N        0.10574    0.94260    0.32586    1.000
    Si1320   Si       0.99417    0.92396    0.25074    1.000
    Si1321   Si       0.99546    0.89804    0.34220    1.000
    Si1322   Si       0.12558    0.94902    0.36970    1.000
    N1323    N        0.16885    0.94336    0.35224    1.000
    Si1324   Si       0.16086    0.90112    0.35570    1.000
    Si1325   Si       0.12135    0.91102    0.30050    1.000
    N1326    N        0.14814    0.92626    0.26972    1.000
    N1327    N        0.21215    0.93971    0.30049    1.000
    Si1328   Si       0.23203    0.90817    0.27785    1.000
    N1329    N        0.01749    0.89928    0.48890    1.000
    N1330    N        0.00700    0.91718    0.41830    1.000
    Si1331   Si       0.04936    0.92752    0.40435    1.000
    Si1332   Si       0.01832    0.93004    0.45869    1.000
    N1333    N        0.06035    0.93940    0.44590    1.000
    Si1334   Si       0.15157    0.90148    0.45465    1.000
    N1335    N        0.23164    0.93660    0.37267    1.000
    N1336    N        0.12436    0.90487    0.37997    1.000
    N1337    N        0.17814    0.92353    0.42972    1.000
    N1338    N        0.12486    0.93112    0.47500    1.000
    Si1339   Si       0.20807    0.91168    0.40160    1.000
    N1340    N        0.22509    0.92243    0.49134    1.000
    N1341    N        0.03027    0.92069    0.56690    1.000
    Si1342   Si       0.07257    0.92399    0.55630    1.000
    N1343    N        0.10392    0.89938    0.54062    1.000
    N1344    N        0.10029    0.93779    0.59001    1.000
    Si1345   Si       0.00228    0.89029    0.56919    1.000
    Si1346   Si       0.13653    0.91790    0.51591    1.000
    N1347    N        0.16848    0.91431    0.55076    1.000
    Si1348   Si       0.14216    0.92681    0.58343    1.000
    N1349    N        0.22820    0.91804    0.59247    1.000
    Si1350   Si       0.00528    0.91731    0.73353    1.000
    N1351    N        0.99980    0.91737    0.65043    1.000
    N1352    N        0.03764    0.90277    0.70453    1.000
    Si1353   Si       0.07509    0.90431    0.67845    1.000
    N1354    N        0.06172    0.93597    0.65031    1.000
    N1355    N        0.10715    0.93196    0.69597    1.000
    Si1356   Si       0.02241    0.94537    0.67527    1.000
    Si1357   Si       0.20050    0.94076    0.61847    1.000
    N1358    N        0.22381    0.94696    0.73205    1.000
    N1359    N        0.19829    0.90677    0.64620    1.000
    Si1360   Si       0.12185    0.90671    0.73097    1.000
    Si1361   Si       0.17870    0.94588    0.73101    1.000
    N1362    N        0.16681    0.90558    0.71778    1.000
    N1363    N        0.05587    0.92836    0.83788    1.000
    Si1364   Si       0.01679    0.91982    0.81713    1.000
    Si1365   Si       0.09312    0.90712    0.83530    1.000
    N1366    N        0.01474    0.93304    0.77295    1.000
    N1367    N        0.10471    0.93864    0.75750    1.000
    N1368    N        0.12331    0.93721    0.82939    1.000
    N1369    N        0.21140    0.93385    0.82604    1.000
    Si1370   Si       0.22001    0.89345    0.81354    1.000
    Si1371   Si       0.20650    0.92037    0.86803    1.000
    Si1372   Si       0.13092    0.94638    0.87079    1.000
    N1373    N        0.21127    0.89203    0.77228    1.000
    Si1374   Si       0.02099    0.92148    0.93726    1.000
    N1375    N        0.04617    0.91509    0.90313    1.000
    N1376    N        0.10985    0.89272    0.87759    1.000
    N1377    N        0.11543    0.92807    0.95842    1.000
    N1378    N        0.16640    0.92368    0.88286    1.000
    N1379    N        0.21524    0.92156    0.95518    1.000
    N1380    N        0.06507    0.96804    0.06580    1.000
    N1381    N        0.02112    0.98924    0.00776    1.000
    Si1382   Si       0.04661    0.99725    0.04112    1.000
    Si1383   Si       0.10430    0.96125    0.04933    1.000
    N1384    N        0.10184    0.97008    0.00719    1.000
    N1385    N        0.13026    0.99180    0.06283    1.000
    Si1386   Si       0.16820    0.98874    0.08402    1.000
    N1387    N        0.20444    0.97216    0.06285    1.000
    Si1388   Si       0.20445    0.95297    0.02515    1.000
    N1389    N        0.17658    0.95966    0.11649    1.000
    N1390    N        0.22398    0.98225    0.99795    1.000
    Si1391   Si       0.21806    0.95194    0.09852    1.000
    N1392    N        0.03757    0.98157    0.12618    1.000
    Si1393   Si       0.01298    0.00241    0.23185    1.000
    Si1394   Si       0.10192    0.98139    0.18371    1.000
    Si1395   Si       0.00103    0.98872    0.15242    1.000
    N1396    N        0.01525    0.95905    0.23191    1.000
    N1397    N        0.06828    0.95254    0.18375    1.000
    Si1398   Si       0.15906    0.99325    0.21911    1.000
    N1399    N        0.16856    0.99466    0.17566    1.000
    N1400    N        0.11599    0.98692    0.22515    1.000
    N1401    N        0.19073    0.96570    0.23561    1.000
    Si1402   Si       0.16883    0.95569    0.15852    1.000
    N1403    N        0.03794    0.97157    0.31773    1.000
    Si1404   Si       0.99419    0.95869    0.32100    1.000
    N1405    N        0.09250    0.00651    0.29512    1.000
    Si1406   Si       0.12394    0.98465    0.31673    1.000
    N1407    N        0.12458    0.99313    0.35954    1.000
    N1408    N        0.22163    0.99813    0.33453    1.000
    N1409    N        0.15914    0.99140    0.29277    1.000
    Si1410   Si       0.20957    0.95668    0.34087    1.000
    Si1411   Si       0.17935    0.95532    0.27651    1.000
    N1412    N        0.06546    0.95884    0.37654    1.000
    Si1413   Si       0.02289    0.99922    0.43648    1.000
    N1414    N        0.99703    0.96817    0.46223    1.000
    Si1415   Si       0.08487    0.99865    0.38339    1.000
    N1416    N        0.06403    0.00430    0.42546    1.000
    Si1417   Si       0.09824    0.95826    0.45331    1.000
    N1418    N        0.99707    0.00611    0.40245    1.000
    N1419    N        0.11399    0.99638    0.46997    1.000
    Si1420   Si       0.16349    0.96420    0.43289    1.000
    Si1421   Si       0.21831    0.96294    0.48131    1.000
    N1422    N        0.17610    0.00061    0.41131    1.000
    N1423    N        0.17779    0.97398    0.47350    1.000
    N1424    N        0.23475    0.97634    0.44323    1.000
    N1425    N        0.12281    0.96124    0.41650    1.000
    N1426    N        0.04774    0.98093    0.60082    1.000
    Si1427   Si       0.10217    0.98791    0.55022    1.000
    Si1428   Si       0.03214    0.97486    0.56188    1.000
    N1429    N        0.06724    0.96531    0.53801    1.000
    Si1430   Si       0.08170    0.96110    0.62262    1.000
    N1431    N        0.13165    0.96214    0.53188    1.000
    N1432    N        0.23241    0.98794    0.51612    1.000
    N1433    N        0.16642    0.95898    0.60364    1.000
    Si1434   Si       0.14574    0.99437    0.61671    1.000
    N1435    N        0.11633    0.00735    0.58678    1.000
    Si1436   Si       0.14586    0.98731    0.49794    1.000
    Si1437   Si       0.05277    0.00579    0.69335    1.000
    N1438    N        0.09503    0.99760    0.70980    1.000
    N1439    N        0.00513    0.98535    0.65557    1.000
    Si1440   Si       0.07789    0.96400    0.73491    1.000
    N1441    N        0.03934    0.96615    0.70922    1.000
    Si1442   Si       0.02943    0.00654    0.62787    1.000
    Si1443   Si       0.12320    0.97077    0.68705    1.000
    N1444    N        0.16490    0.97432    0.70232    1.000
    N1445    N        0.22569    0.97299    0.63320    1.000
    N1446    N        0.11677    0.97725    0.64483    1.000
    Si1447   Si       0.01611    0.97552    0.77098    1.000
    N1448    N        0.05853    0.99112    0.76840    1.000
    N1449    N        0.00544    0.99104    0.81101    1.000
    Si1450   Si       0.99640    0.97853    0.85226    1.000
    N1451    N        0.12017    0.99995    0.80220    1.000
    Si1452   Si       0.20256    0.96753    0.79856    1.000
    N1453    N        0.18940    0.99923    0.82352    1.000
    N1454    N        0.16847    0.95648    0.77300    1.000
    Si1455   Si       0.12762    0.95857    0.79045    1.000
    N1456    N        0.14254    0.98880    0.87121    1.000
    N1457    N        0.03328    0.98784    0.87254    1.000
    Si1458   Si       0.03118    0.99620    0.96673    1.000
    N1459    N        0.09385    0.95814    0.89439    1.000
    N1460    N        0.04696    0.95482    0.95559    1.000
    N1461    N        0.10391    0.99178    0.94588    1.000
    N1462    N        0.99679    0.00366    0.94020    1.000
    Si1463   Si       0.08686    0.95169    0.93753    1.000
    Si1464   Si       0.11246    0.00031    0.90320    1.000
    Si1465   Si       0.05360    0.94896    0.87779    1.000
    N1466    N        0.16864    0.97568    0.95859    1.000
    Si1467   Si       0.21131    0.96660    0.95990    1.000
    Si1468   Si       0.13814    0.95473    0.98274    1.000
    N1469    N        0.28990    0.03259    0.10569    1.000
    Si1470   Si       0.25154    0.01359    0.01094    1.000
    Si1471   Si       0.36733    0.06242    0.10502    1.000
    N1472    N        0.38771    0.04377    0.02873    1.000
    Si1473   Si       0.42195    0.04353    0.05535    1.000
    N1474    N        0.40656    0.05109    0.09514    1.000
    N1475    N        0.47459    0.02512    0.11820    1.000
    Si1476   Si       0.23782    0.06497    0.16572    1.000
    N1477    N        0.28151    0.05484    0.16902    1.000
    Si1478   Si       0.31020    0.03060    0.14510    1.000
    N1479    N        0.27906    0.05428    0.23664    1.000
    N1480    N        0.35284    0.03278    0.13270    1.000
    Si1481   Si       0.43506    0.03933    0.12486    1.000
    N1482    N        0.48453    0.04490    0.19206    1.000
    Si1483   Si       0.47650    0.00627    0.21989    1.000
    N1484    N        0.34111    0.04583    0.33682    1.000
    N1485    N        0.34652    0.04955    0.26773    1.000
    Si1486   Si       0.30984    0.02845    0.25650    1.000
    N1487    N        0.29118    0.01814    0.29595    1.000
    Si1488   Si       0.24801    0.02175    0.30792    1.000
    Si1489   Si       0.31185    0.01458    0.33413    1.000
    N1490    N        0.29241    0.01512    0.37263    1.000
    Si1491   Si       0.37110    0.05256    0.30614    1.000
    Si1492   Si       0.42514    0.03034    0.35284    1.000
    N1493    N        0.40298    0.02410    0.31549    1.000
    N1494    N        0.46337    0.05077    0.34142    1.000
    Si1495   Si       0.48141    0.05288    0.30206    1.000
    N1496    N        0.48299    0.03601    0.25455    1.000
    N1497    N        0.31433    0.05951    0.49103    1.000
    N1498    N        0.35171    0.05615    0.42948    1.000
    Si1499   Si       0.27641    0.04098    0.40531    1.000
    Si1500   Si       0.32745    0.03710    0.45684    1.000
    N1501    N        0.29270    0.01763    0.43854    1.000
    N1502    N        0.46309    0.04853    0.41504    1.000
    Si1503   Si       0.37906    0.02727    0.41427    1.000
    Si1504   Si       0.44531    0.00956    0.41897    1.000
    N1505    N        0.40863    0.01567    0.44159    1.000
    N1506    N        0.40124    0.05023    0.38320    1.000
    N1507    N        0.27827    0.05147    0.55281    1.000
    Si1508   Si       0.31513    0.03972    0.53032    1.000
    Si1509   Si       0.35485    0.04275    0.58810    1.000
    Si1510   Si       0.27727    0.02445    0.58737    1.000
    N1511    N        0.31901    0.02127    0.59963    1.000
    N1512    N        0.34688    0.06082    0.55026    1.000
    N1513    N        0.24651    0.03791    0.61474    1.000
    N1514    N        0.40222    0.02151    0.51435    1.000
    N1515    N        0.39160    0.01917    0.58490    1.000
    Si1516   Si       0.47322    0.05712    0.55939    1.000
    N1517    N        0.45842    0.01460    0.55609    1.000
    Si1518   Si       0.41573    0.06325    0.51360    1.000
    Si1519   Si       0.29419    0.03520    0.70917    1.000
    N1520    N        0.31562    0.03685    0.67228    1.000
    N1521    N        0.35982    0.06401    0.62686    1.000
    Si1522   Si       0.32484    0.00583    0.64272    1.000
    N1523    N        0.48906    0.05446    0.66098    1.000
    Si1524   Si       0.45439    0.03331    0.67604    1.000
    N1525    N        0.41792    0.03909    0.65021    1.000
    N1526    N        0.44331    0.04814    0.71514    1.000
    Si1527   Si       0.31265    0.03633    0.78738    1.000
    N1528    N        0.35255    0.04872    0.79956    1.000
    N1529    N        0.28982    0.05447    0.82035    1.000
    N1530    N        0.30937    0.05232    0.74681    1.000
    N1531    N        0.34116    0.04192    0.87142    1.000
    Si1532   Si       0.38566    0.02183    0.80110    1.000
    N1533    N        0.42054    0.04021    0.78092    1.000
    Si1534   Si       0.44942    0.02713    0.75271    1.000
    N1535    N        0.48662    0.03360    0.77240    1.000
    N1536    N        0.47354    0.01347    0.84912    1.000
    Si1537   Si       0.48827    0.04003    0.81535    1.000
    Si1538   Si       0.32247    0.03914    0.97453    1.000
    N1539    N        0.31374    0.04469    0.93279    1.000
    Si1540   Si       0.32391    0.01649    0.90233    1.000
    N1541    N        0.35887    0.01400    0.97624    1.000
    N1542    N        0.29169    0.01250    0.99064    1.000
    N1543    N        0.24598    0.06501    0.92739    1.000
    N1544    N        0.41729    0.01784    0.94046    1.000
    N1545    N        0.40855    0.05734    0.89046    1.000
    Si1546   Si       0.38132    0.02575    0.87769    1.000
    Si1547   Si       0.42836    0.05793    0.92812    1.000
    N1548    N        0.27719    0.08994    0.05865    1.000
    Si1549   Si       0.35984    0.07770    0.03046    1.000
    Si1550   Si       0.30177    0.07021    0.08948    1.000
    N1551    N        0.30324    0.10222    0.12006    1.000
    N1552    N        0.24226    0.12149    0.01666    1.000
    N1553    N        0.34135    0.06690    0.07020    1.000
    Si1554   Si       0.33726    0.13010    0.11624    1.000
    Si1555   Si       0.48800    0.08050    0.03526    1.000
    N1556    N        0.38406    0.11469    0.03379    1.000
    N1557    N        0.44506    0.07980    0.04591    1.000
    Si1558   Si       0.42911    0.11772    0.03126    1.000
    N1559    N        0.33184    0.09005    0.20700    1.000
    Si1560   Si       0.29037    0.07957    0.20385    1.000
    N1561    N        0.26769    0.11751    0.18729    1.000
    Si1562   Si       0.27179    0.12243    0.14401    1.000
    Si1563   Si       0.34693    0.12612    0.18906    1.000
    N1564    N        0.37143    0.10263    0.12101    1.000
    N1565    N        0.43686    0.07706    0.14779    1.000
    Si1566   Si       0.46565    0.08151    0.18010    1.000
    Si1567   Si       0.40945    0.11184    0.14349    1.000
    N1568    N        0.47785    0.12202    0.17311    1.000
    Si1569   Si       0.47397    0.07639    0.24442    1.000
    N1570    N        0.44190    0.08580    0.21626    1.000
    Si1571   Si       0.41147    0.11509    0.21921    1.000
    N1572    N        0.31500    0.11275    0.26450    1.000
    N1573    N        0.32829    0.11390    0.33323    1.000
    N1574    N        0.26293    0.12381    0.32443    1.000
    Si1575   Si       0.33536    0.08200    0.36350    1.000
    Si1576   Si       0.34774    0.08874    0.24987    1.000
    N1577    N        0.38895    0.09126    0.31614    1.000
    N1578    N        0.46042    0.09021    0.28400    1.000
    Si1579   Si       0.41865    0.10900    0.28577    1.000
    Si1580   Si       0.37016    0.12411    0.33624    1.000
    N1581    N        0.38777    0.10400    0.25331    1.000
    N1582    N        0.30539    0.12112    0.45160    1.000
    N1583    N        0.25774    0.07746    0.43726    1.000
    N1584    N        0.30069    0.07857    0.39004    1.000
    Si1585   Si       0.28209    0.10712    0.41743    1.000
    Si1586   Si       0.29960    0.09940    0.48853    1.000
    Si1587   Si       0.48727    0.09440    0.49486    1.000
    Si1588   Si       0.47414    0.07206    0.37880    1.000
    N1589    N        0.44485    0.10560    0.38070    1.000
    N1590    N        0.37005    0.10930    0.38048    1.000
    N1591    N        0.44673    0.07377    0.48663    1.000
    Si1592   Si       0.40601    0.09143    0.39431    1.000
    Si1593   Si       0.45084    0.07728    0.44296    1.000
    N1594    N        0.41344    0.09780    0.43687    1.000
    Si1595   Si       0.40071    0.11930    0.47174    1.000
    Si1596   Si       0.35686    0.10049    0.53366    1.000
    Si1597   Si       0.24798    0.08102    0.54051    1.000
    Si1598   Si       0.25065    0.08196    0.61543    1.000
    N1599    N        0.24427    0.10504    0.57705    1.000
    N1600    N        0.32232    0.12256    0.51880    1.000
    N1601    N        0.25979    0.09607    0.50235    1.000
    Si1602   Si       0.41852    0.10812    0.57738    1.000
    N1603    N        0.38583    0.09392    0.50346    1.000
    N1604    N        0.43365    0.07653    0.55234    1.000
    N1605    N        0.37932    0.12633    0.56320    1.000
    N1606    N        0.41673    0.10511    0.62155    1.000
    N1607    N        0.29229    0.09082    0.62346    1.000
    N1608    N        0.33933    0.11821    0.65305    1.000
    Si1609   Si       0.32531    0.07491    0.64784    1.000
    Si1610   Si       0.27478    0.08890    0.74199    1.000
    N1611    N        0.26729    0.06750    0.70393    1.000
    N1612    N        0.48230    0.12653    0.63939    1.000
    N1613    N        0.46440    0.11388    0.70542    1.000
    N1614    N        0.39626    0.10024    0.68830    1.000
    Si1615   Si       0.39759    0.07789    0.64855    1.000
    Si1616   Si       0.42812    0.08962    0.71580    1.000
    N1617    N        0.33689    0.10533    0.83669    1.000
    Si1618   Si       0.25577    0.07772    0.81265    1.000
    N1619    N        0.26154    0.12012    0.82856    1.000
    N1620    N        0.29403    0.11861    0.77120    1.000
    N1621    N        0.24585    0.07215    0.76971    1.000
    Si1622   Si       0.36296    0.08906    0.80722    1.000
    Si1623   Si       0.31486    0.07047    0.85174    1.000
    N1624    N        0.36476    0.11638    0.77451    1.000
    Si1625   Si       0.47198    0.11497    0.84288    1.000
    N1626    N        0.43050    0.10365    0.75910    1.000
    N1627    N        0.40205    0.09287    0.82510    1.000
    Si1628   Si       0.43082    0.08051    0.79658    1.000
    N1629    N        0.46842    0.07951    0.81850    1.000
    Si1630   Si       0.40265    0.09347    0.86948    1.000
    Si1631   Si       0.46924    0.12274    0.74918    1.000
    Si1632   Si       0.32545    0.11483    0.97676    1.000
    N1633    N        0.28822    0.10884    0.95579    1.000
    N1634    N        0.29274    0.08962    0.88440    1.000
    Si1635   Si       0.28813    0.07925    0.92665    1.000
    N1636    N        0.33448    0.07590    0.99421    1.000
    N1637    N        0.36963    0.11255    0.89235    1.000
    Si1638   Si       0.45303    0.10840    0.95562    1.000
    Si1639   Si       0.38518    0.12394    0.92985    1.000
    N1640    N        0.44012    0.11386    0.87465    1.000
    N1641    N        0.41131    0.09724    0.94730    1.000
    N1642    N        0.46911    0.07073    0.93912    1.000
    N1643    N        0.45706    0.12404    0.99650    1.000
    N1644    N        0.26961    0.16085    0.06327    1.000
    N1645    N        0.33242    0.13652    0.07301    1.000
    N1646    N        0.31233    0.13902    0.00947    1.000
    Si1647   Si       0.29627    0.12898    0.04961    1.000
    Si1648   Si       0.32743    0.17781    0.00082    1.000
    N1649    N        0.36693    0.18134    0.01847    1.000
    Si1650   Si       0.36853    0.15196    0.05245    1.000
    Si1651   Si       0.42422    0.16975    0.08805    1.000
    N1652    N        0.43736    0.15444    0.05206    1.000
    Si1653   Si       0.48517    0.15596    0.01122    1.000
    N1654    N        0.38231    0.18182    0.08432    1.000
    N1655    N        0.42996    0.14320    0.12209    1.000
    Si1656   Si       0.24576    0.15183    0.20583    1.000
    N1657    N        0.26698    0.16858    0.14156    1.000
    N1658    N        0.33560    0.15378    0.15343    1.000
    N1659    N        0.33693    0.15899    0.21753    1.000
    N1660    N        0.26464    0.15191    0.24469    1.000
    Si1661   Si       0.30657    0.18533    0.13753    1.000
    Si1662   Si       0.46688    0.15203    0.14306    1.000
    Si1663   Si       0.48269    0.13946    0.21453    1.000
    N1664    N        0.43932    0.15045    0.22530    1.000
    Si1665   Si       0.42877    0.18582    0.19933    1.000
    N1666    N        0.38971    0.12082    0.18247    1.000
    Si1667   Si       0.26711    0.15248    0.35687    1.000
    N1668    N        0.30493    0.16895    0.29171    1.000
    Si1669   Si       0.30683    0.15387    0.24950    1.000
    Si1670   Si       0.29896    0.12714    0.30316    1.000
    N1671    N        0.29367    0.18490    0.35644    1.000
    N1672    N        0.48176    0.16074    0.27369    1.000
    Si1673   Si       0.47975    0.17656    0.31994    1.000
    N1674    N        0.37901    0.16483    0.34556    1.000
    N1675    N        0.41702    0.15122    0.29694    1.000
    Si1676   Si       0.43893    0.17347    0.26534    1.000
    N1677    N        0.44937    0.17215    0.35684    1.000
    Si1678   Si       0.47592    0.13613    0.37136    1.000
    Si1679   Si       0.41590    0.18671    0.33073    1.000
    N1680    N        0.31642    0.18109    0.48240    1.000
    N1681    N        0.33516    0.16898    0.40807    1.000
    Si1682   Si       0.33058    0.15574    0.44967    1.000
    N1683    N        0.26105    0.13952    0.39842    1.000
    N1684    N        0.42860    0.15231    0.48198    1.000
    N1685    N        0.40574    0.17655    0.40981    1.000
    Si1686   Si       0.40710    0.17873    0.45347    1.000
    Si1687   Si       0.37148    0.15443    0.39104    1.000
    N1688    N        0.37208    0.14910    0.45965    1.000
    Si1689   Si       0.46977    0.16672    0.48689    1.000
    Si1690   Si       0.30950    0.16300    0.52051    1.000
    N1691    N        0.28621    0.15817    0.59950    1.000
    N1692    N        0.26786    0.16590    0.53555    1.000
    Si1693   Si       0.25191    0.14867    0.57340    1.000
    N1694    N        0.35051    0.17962    0.60797    1.000
    N1695    N        0.33404    0.18357    0.54902    1.000
    Si1696   Si       0.36990    0.16816    0.57040    1.000
    N1697    N        0.44785    0.14023    0.57642    1.000
    N1698    N        0.48641    0.13498    0.51424    1.000
    Si1699   Si       0.48788    0.14622    0.55614    1.000
    Si1700   Si       0.44338    0.18320    0.58048    1.000
    N1701    N        0.32929    0.13865    0.71679    1.000
    N1702    N        0.27961    0.14990    0.66298    1.000
    Si1703   Si       0.28744    0.15269    0.70417    1.000
    Si1704   Si       0.30254    0.13201    0.63175    1.000
    N1705    N        0.25520    0.12841    0.72137    1.000
    Si1706   Si       0.36283    0.13237    0.68738    1.000
    N1707    N        0.39946    0.15911    0.73487    1.000
    N1708    N        0.44337    0.18246    0.62399    1.000
    Si1709   Si       0.44549    0.13995    0.62372    1.000
    N1710    N        0.37825    0.16928    0.67276    1.000
    Si1711   Si       0.26466    0.14488    0.79233    1.000
    Si1712   Si       0.34840    0.13738    0.86366    1.000
    Si1713   Si       0.33068    0.13583    0.75976    1.000
    N1714    N        0.32966    0.17469    0.78177    1.000
    Si1715   Si       0.27470    0.12661    0.86904    1.000
    N1716    N        0.30967    0.15232    0.87525    1.000
    N1717    N        0.37117    0.16909    0.84245    1.000
    N1718    N        0.41667    0.16599    0.79756    1.000
    Si1719   Si       0.40152    0.13616    0.76924    1.000
    N1720    N        0.44867    0.17660    0.86128    1.000
    N1721    N        0.46976    0.16563    0.74965    1.000
    Si1722   Si       0.41132    0.18427    0.83750    1.000
    N1723    N        0.48910    0.14521    0.81663    1.000
    Si1724   Si       0.24780    0.17831    0.91909    1.000
    N1725    N        0.25478    0.16728    0.96265    1.000
    N1726    N        0.24574    0.13975    0.89960    1.000
    N1727    N        0.35507    0.13837    0.95654    1.000
    Si1728   Si       0.25368    0.12589    0.97412    1.000
    N1729    N        0.46560    0.14410    0.93165    1.000
    N1730    N        0.40098    0.16289    0.91673    1.000
    Si1731   Si       0.43925    0.15135    0.89821    1.000
    Si1732   Si       0.36625    0.18460    0.93827    1.000
    N1733    N        0.29815    0.20291    0.02202    1.000
    Si1734   Si       0.28948    0.19899    0.06601    1.000
    N1735    N        0.31821    0.20152    0.09931    1.000
    N1736    N        0.26573    0.23448    0.07325    1.000
    Si1737   Si       0.36020    0.21781    0.09514    1.000
    N1738    N        0.43904    0.21157    0.09676    1.000
    N1739    N        0.42421    0.22277    0.02646    1.000
    Si1740   Si       0.38559    0.21954    0.00718    1.000
    Si1741   Si       0.45976    0.22517    0.00354    1.000
    Si1742   Si       0.42375    0.23869    0.06654    1.000
    N1743    N        0.31736    0.21135    0.17086    1.000
    Si1744   Si       0.34702    0.18500    0.18592    1.000
    N1745    N        0.36403    0.24189    0.13378    1.000
    Si1746   Si       0.45917    0.22509    0.13250    1.000
    Si1747   Si       0.39685    0.23013    0.22740    1.000
    N1748    N        0.43301    0.21059    0.23882    1.000
    N1749    N        0.45234    0.19174    0.16002    1.000
    N1750    N        0.38660    0.19781    0.19852    1.000
    N1751    N        0.33813    0.22811    0.31306    1.000
    N1752    N        0.26644    0.22322    0.31191    1.000
    Si1753   Si       0.30286    0.20233    0.31783    1.000
    Si1754   Si       0.36016    0.23778    0.34805    1.000
    N1755    N        0.40072    0.22513    0.34817    1.000
    N1756    N        0.44766    0.20403    0.29972    1.000
    Si1757   Si       0.45640    0.23409    0.26973    1.000
    N1758    N        0.24069    0.23286    0.38085    1.000
    Si1759   Si       0.30338    0.21959    0.46856    1.000
    N1760    N        0.28593    0.21303    0.42774    1.000
    Si1761   Si       0.31076    0.20297    0.39311    1.000
    N1762    N        0.33839    0.23503    0.38467    1.000
    Si1763   Si       0.24324    0.21862    0.42483    1.000
    N1764    N        0.26623    0.22249    0.49114    1.000
    N1765    N        0.45701    0.19029    0.43929    1.000
    N1766    N        0.40506    0.22196    0.46969    1.000
    Si1767   Si       0.44808    0.22572    0.46345    1.000
    Si1768   Si       0.44307    0.19128    0.39693    1.000
    N1769    N        0.45452    0.23242    0.38787    1.000
    N1770    N        0.29561    0.22916    0.59588    1.000
    Si1771   Si       0.24448    0.19680    0.51661    1.000
    Si1772   Si       0.31259    0.19040    0.58788    1.000
    N1773    N        0.23975    0.23029    0.54733    1.000
    Si1774   Si       0.40704    0.23799    0.55986    1.000
    Si1775   Si       0.48333    0.22477    0.53756    1.000
    N1776    N        0.40432    0.19560    0.56384    1.000
    N1777    N        0.46598    0.21031    0.49957    1.000
    N1778    N        0.48148    0.18944    0.56269    1.000
    Si1779   Si       0.24792    0.21931    0.69614    1.000
    N1780    N        0.28827    0.19742    0.71644    1.000
    N1781    N        0.32715    0.21629    0.65918    1.000
    Si1782   Si       0.32403    0.22084    0.70174    1.000
    N1783    N        0.24624    0.23743    0.73618    1.000
    N1784    N        0.26333    0.23703    0.65932    1.000
    N1785    N        0.36348    0.21685    0.71999    1.000
    Si1786   Si       0.29990    0.24331    0.63670    1.000
    Si1787   Si       0.36311    0.19588    0.64413    1.000
    N1788    N        0.43307    0.21362    0.69138    1.000
    N1789    N        0.48852    0.22657    0.74272    1.000
    Si1790   Si       0.39652    0.19162    0.70681    1.000
    Si1791   Si       0.43304    0.21563    0.64857    1.000
    N1792    N        0.39154    0.22876    0.63966    1.000
    Si1793   Si       0.45007    0.24141    0.72140    1.000
    N1794    N        0.31573    0.21099    0.84052    1.000
    Si1795   Si       0.27796    0.21271    0.75599    1.000
    Si1796   Si       0.34714    0.19429    0.81488    1.000
    N1797    N        0.26227    0.18961    0.79088    1.000
    Si1798   Si       0.29231    0.24115    0.82121    1.000
    N1799    N        0.29928    0.24525    0.77633    1.000
    N1800    N        0.25039    0.23876    0.83720    1.000
    Si1801   Si       0.48184    0.18558    0.83475    1.000
    N1802    N        0.37609    0.22380    0.80176    1.000
    N1803    N        0.41016    0.22481    0.85786    1.000
    N1804    N        0.46601    0.21055    0.80272    1.000
    Si1805   Si       0.37946    0.23365    0.75826    1.000
    Si1806   Si       0.44146    0.19069    0.77246    1.000
    N1807    N        0.48418    0.23618    0.86277    1.000
    N1808    N        0.42007    0.22417    0.75080    1.000
    N1809    N        0.26636    0.23111    0.96748    1.000
    N1810    N        0.35293    0.20807    0.90171    1.000
    Si1811   Si       0.30214    0.22548    0.94203    1.000
    N1812    N        0.28452    0.20228    0.90988    1.000
    N1813    N        0.32597    0.19625    0.96210    1.000
    Si1814   Si       0.31533    0.19548    0.88127    1.000
    Si1815   Si       0.26442    0.19628    0.99332    1.000
    Si1816   Si       0.42348    0.23239    0.94381    1.000
    N1817    N        0.45259    0.20758    0.92089    1.000
    Si1818   Si       0.44917    0.21909    0.88111    1.000
    N1819    N        0.47094    0.18825    0.98413    1.000
    Si1820   Si       0.37800    0.23830    0.88789    1.000
    N1821    N        0.39176    0.20983    0.96357    1.000
    Si1822   Si       0.47995    0.18345    0.94245    1.000
    Si1823   Si       0.28928    0.26940    0.08813    1.000
    N1824    N        0.32678    0.28801    0.07381    1.000
    N1825    N        0.29613    0.28478    0.00772    1.000
    Si1826   Si       0.26144    0.29622    0.03057    1.000
    N1827    N        0.35620    0.25474    0.00982    1.000
    Si1828   Si       0.35798    0.27746    0.04630    1.000
    N1829    N        0.38231    0.25155    0.07337    1.000
    N1830    N        0.44283    0.27961    0.06193    1.000
    Si1831   Si       0.48098    0.28009    0.04206    1.000
    Si1832   Si       0.39593    0.26776    0.11897    1.000
    N1833    N        0.29345    0.26253    0.13008    1.000
    Si1834   Si       0.30128    0.27346    0.21783    1.000
    Si1835   Si       0.25678    0.26746    0.15496    1.000
    N1836    N        0.26562    0.26142    0.19617    1.000
    N1837    N        0.33719    0.27310    0.19301    1.000
    Si1838   Si       0.32948    0.25183    0.15492    1.000
    N1839    N        0.47843    0.24625    0.18945    1.000
    N1840    N        0.40729    0.26312    0.20139    1.000
    N1841    N        0.43495    0.26284    0.13939    1.000
    Si1842   Si       0.37560    0.29141    0.20098    1.000
    Si1843   Si       0.44531    0.27245    0.18078    1.000
    Si1844   Si       0.33828    0.25674    0.28030    1.000
    N1845    N        0.25622    0.29159    0.28432    1.000
    N1846    N        0.30331    0.24788    0.25339    1.000
    N1847    N        0.32476    0.29514    0.29649    1.000
    Si1848   Si       0.26417    0.24877    0.27672    1.000
    N1849    N        0.36113    0.28316    0.35263    1.000
    N1850    N        0.43254    0.28539    0.34727    1.000
    N1851    N        0.44337    0.27553    0.27086    1.000
    Si1852   Si       0.40360    0.28883    0.26622    1.000
    N1853    N        0.37597    0.25246    0.25970    1.000
    Si1854   Si       0.42086    0.25339    0.37278    1.000
    N1855    N        0.28174    0.28241    0.46905    1.000
    Si1856   Si       0.32342    0.28897    0.46137    1.000
    Si1857   Si       0.35551    0.27602    0.39650    1.000
    N1858    N        0.33226    0.30154    0.42115    1.000
    N1859    N        0.24495    0.29928    0.40665    1.000
    Si1860   Si       0.24168    0.29637    0.45348    1.000
    N1861    N        0.33747    0.24848    0.46610    1.000
    N1862    N        0.39715    0.26671    0.40572    1.000
    Si1863   Si       0.41855    0.28634    0.43853    1.000
    N1864    N        0.39189    0.29086    0.47251    1.000
    N1865    N        0.45711    0.26455    0.44416    1.000
    Si1866   Si       0.37693    0.24997    0.48452    1.000
    Si1867   Si       0.48557    0.25674    0.40844    1.000
    N1868    N        0.28397    0.27530    0.53986    1.000
    N1869    N        0.25034    0.27967    0.60227    1.000
    Si1870   Si       0.26768    0.25215    0.57190    1.000
    Si1871   Si       0.26032    0.26264    0.50601    1.000
    N1872    N        0.33767    0.30128    0.56843    1.000
    N1873    N        0.38211    0.25306    0.52761    1.000
    N1874    N        0.40185    0.27377    0.58884    1.000
    Si1875   Si       0.45449    0.27178    0.59057    1.000
    Si1876   Si       0.37671    0.28930    0.55540    1.000
    N1877    N        0.44903    0.24507    0.55593    1.000
    N1878    N        0.31442    0.26281    0.70971    1.000
    N1879    N        0.31205    0.28505    0.63846    1.000
    Si1880   Si       0.30734    0.29500    0.68076    1.000
    Si1881   Si       0.48694    0.26946    0.64959    1.000
    N1882    N        0.46856    0.26958    0.69281    1.000
    Si1883   Si       0.40563    0.27078    0.63405    1.000
    N1884    N        0.44866    0.25369    0.63073    1.000
    Si1885   Si       0.25587    0.28212    0.85420    1.000
    N1886    N        0.29618    0.28023    0.83903    1.000
    Si1887   Si       0.31786    0.27382    0.75079    1.000
    N1888    N        0.36122    0.27317    0.75954    1.000
    Si1889   Si       0.33445    0.29687    0.85224    1.000
    N1890    N        0.36297    0.26600    0.85882    1.000
    N1891    N        0.40843    0.28342    0.80476    1.000
    N1892    N        0.45776    0.27950    0.75542    1.000
    Si1893   Si       0.39363    0.25234    0.82839    1.000
    Si1894   Si       0.48221    0.27802    0.85085    1.000
    Si1895   Si       0.47990    0.24698    0.77932    1.000
    N1896    N        0.44576    0.30105    0.86540    1.000
    Si1897   Si       0.29684    0.29790    0.91457    1.000
    Si1898   Si       0.33108    0.27781    0.98196    1.000
    N1899    N        0.31668    0.26818    0.94045    1.000
    N1900    N        0.25892    0.28369    0.89670    1.000
    N1901    N        0.44770    0.25426    0.97294    1.000
    Si1902   Si       0.46859    0.29397    0.96565    1.000
    N1903    N        0.40576    0.26105    0.91578    1.000
    Si1904   Si       0.41783    0.29925    0.90147    1.000
    Si1905   Si       0.30736    0.33161    0.08360    1.000
    N1906    N        0.25073    0.33382    0.01105    1.000
    N1907    N        0.31428    0.35525    0.04779    1.000
    N1908    N        0.33662    0.34071    0.11729    1.000
    N1909    N        0.27934    0.36048    0.10810    1.000
    N1910    N        0.26796    0.30697    0.07328    1.000
    Si1911   Si       0.41701    0.31348    0.06677    1.000
    N1912    N        0.43947    0.34961    0.05508    1.000
    N1913    N        0.39791    0.30973    0.10718    1.000
    N1914    N        0.38299    0.31184    0.03854    1.000
    Si1915   Si       0.37756    0.33716    0.00368    1.000
    N1916    N        0.48055    0.30738    0.00806    1.000
    N1917    N        0.24375    0.30769    0.14136    1.000
    Si1918   Si       0.30286    0.35385    0.21541    1.000
    N1919    N        0.29019    0.35137    0.17386    1.000
    N1920    N        0.29857    0.31386    0.23253    1.000
    Si1921   Si       0.24884    0.33939    0.16985    1.000
    N1922    N        0.37933    0.32630    0.17373    1.000
    Si1923   Si       0.38688    0.35389    0.20786    1.000
    Si1924   Si       0.37865    0.33879    0.13252    1.000
    N1925    N        0.38731    0.31648    0.23612    1.000
    N1926    N        0.45745    0.31025    0.19676    1.000
    N1927    N        0.34836    0.34925    0.33515    1.000
    Si1928   Si       0.29186    0.31354    0.27467    1.000
    Si1929   Si       0.32914    0.31034    0.33557    1.000
    N1930    N        0.29291    0.35498    0.29170    1.000
    N1931    N        0.29852    0.31666    0.36433    1.000
    N1932    N        0.40346    0.31838    0.29961    1.000
    N1933    N        0.44988    0.34772    0.25947    1.000
    Si1934   Si       0.39624    0.31024    0.34196    1.000
    Si1935   Si       0.41149    0.35666    0.27971    1.000
    Si1936   Si       0.46992    0.31040    0.26976    1.000
    N1937    N        0.46347    0.33958    0.37083    1.000
    N1938    N        0.49130    0.30649    0.30840    1.000
    Si1939   Si       0.47272    0.30299    0.34682    1.000
    Si1940   Si       0.25585    0.32706    0.37650    1.000
    Si1941   Si       0.31199    0.33617    0.40193    1.000
    N1942    N        0.26965    0.35741    0.40496    1.000
    N1943    N        0.24113    0.33899    0.46867    1.000
    Si1944   Si       0.47553    0.30746    0.45156    1.000
    Si1945   Si       0.43358    0.35023    0.39918    1.000
    N1946    N        0.43932    0.32615    0.43492    1.000
    N1947    N        0.39859    0.33660    0.37654    1.000
    Si1948   Si       0.37745    0.32306    0.49857    1.000
    N1949    N        0.28924    0.33768    0.59385    1.000
    N1950    N        0.30158    0.35154    0.53040    1.000
    Si1951   Si       0.24923    0.31985    0.58585    1.000
    Si1952   Si       0.32376    0.31458    0.60827    1.000
    Si1953   Si       0.31198    0.30873    0.53455    1.000
    N1954    N        0.33598    0.30680    0.49781    1.000
    Si1955   Si       0.43297    0.34044    0.55615    1.000
    N1956    N        0.40215    0.31861    0.53614    1.000
    N1957    N        0.46074    0.31206    0.57662    1.000
    N1958    N        0.35711    0.33716    0.62641    1.000
    N1959    N        0.27186    0.31329    0.69581    1.000
    N1960    N        0.33906    0.32424    0.69039    1.000
    Si1961   Si       0.32872    0.35215    0.72401    1.000
    Si1962   Si       0.24653    0.34948    0.68802    1.000
    Si1963   Si       0.26655    0.32125    0.74194    1.000
    N1964    N        0.25217    0.36095    0.73031    1.000
    Si1965   Si       0.47349    0.30356    0.71783    1.000
    Si1966   Si       0.43926    0.33788    0.66927    1.000
    N1967    N        0.45032    0.34177    0.71259    1.000
    N1968    N        0.47845    0.31695    0.65561    1.000
    N1969    N        0.40932    0.30575    0.65888    1.000
    Si1970   Si       0.40449    0.36040    0.72946    1.000
    Si1971   Si       0.37321    0.33022    0.66492    1.000
    Si1972   Si       0.31624    0.34186    0.79430    1.000
    N1973    N        0.35121    0.32123    0.81530    1.000
    N1974    N        0.27437    0.34445    0.80219    1.000
    N1975    N        0.31082    0.32030    0.75349    1.000
    N1976    N        0.46477    0.33000    0.80376    1.000
    N1977    N        0.40549    0.32977    0.76288    1.000
    Si1978   Si       0.44855    0.33829    0.84344    1.000
    Si1979   Si       0.43629    0.30592    0.78145    1.000
    Si1980   Si       0.37600    0.30517    0.78374    1.000
    N1981    N        0.47704    0.35915    0.86870    1.000
    N1982    N        0.41109    0.35993    0.83820    1.000
    N1983    N        0.28575    0.33015    0.94124    1.000
    Si1984   Si       0.31971    0.34879    0.96343    1.000
    Si1985   Si       0.25036    0.33342    0.96736    1.000
    Si1986   Si       0.35509    0.35017    0.90224    1.000
    N1987    N        0.32967    0.31854    0.89098    1.000
    N1988    N        0.34561    0.32004    0.98143    1.000
    N1989    N        0.45070    0.31544    0.93226    1.000
    Si1990   Si       0.42400    0.34763    0.94135    1.000
    N1991    N        0.41531    0.34271    0.98426    1.000
    Si1992   Si       0.47925    0.32739    0.90083    1.000
    N1993    N        0.39525    0.33419    0.91179    1.000
    Si1994   Si       0.33953    0.39183    0.04070    1.000
    N1995    N        0.25340    0.39085    0.04937    1.000
    N1996    N        0.36131    0.41034    0.07423    1.000
    Si1997   Si       0.27855    0.36351    0.02563    1.000
    Si1998   Si       0.24694    0.38523    0.09358    1.000
    Si1999   Si       0.36604    0.40915    0.11675    1.000
    N2000    N        0.36813    0.37918    0.01125    1.000
    N2001    N        0.42927    0.40599    0.01605    1.000
    N2002    N        0.47943    0.41066    0.07491    1.000
    Si2003   Si       0.47028    0.36767    0.07879    1.000
    Si2004   Si       0.39119    0.41488    0.99914    1.000
    Si2005   Si       0.44178    0.36326    0.01377    1.000
    N2006    N        0.32718    0.40637    0.14055    1.000
    N2007    N        0.27766    0.38545    0.23354    1.000
    N2008    N        0.34440    0.37052    0.21735    1.000
    Si2009   Si       0.30842    0.36683    0.13955    1.000
    N2010    N        0.40130    0.38062    0.24553    1.000
    N2011    N        0.39423    0.37970    0.13000    1.000
    N2012    N        0.46130    0.36549    0.12265    1.000
    Si2013   Si       0.44199    0.37893    0.22781    1.000
    Si2014   Si       0.43337    0.38922    0.14697    1.000
    N2015    N        0.48033    0.40081    0.23202    1.000
    N2016    N        0.42349    0.37640    0.18774    1.000
    Si2017   Si       0.36232    0.39944    0.24444    1.000
    Si2018   Si       0.32297    0.37685    0.31401    1.000
    Si2019   Si       0.26098    0.38074    0.27505    1.000
    N2020    N        0.35321    0.39903    0.28831    1.000
    N2021    N        0.30713    0.40749    0.33930    1.000
    N2022    N        0.25404    0.41822    0.29674    1.000
    N2023    N        0.24655    0.41945    0.37086    1.000
    Si2024   Si       0.36774    0.36612    0.37012    1.000
    N2025    N        0.37364    0.40997    0.35956    1.000
    N2026    N        0.41824    0.38717    0.31007    1.000
    Si2027   Si       0.45452    0.40644    0.32464    1.000
    Si2028   Si       0.38415    0.41361    0.31597    1.000
    N2029    N        0.23942    0.40233    0.43811    1.000
    N2030    N        0.30569    0.37437    0.46078    1.000
    Si2031   Si       0.32945    0.40238    0.43354    1.000
    Si2032   Si       0.26467    0.36815    0.44785    1.000
    N2033    N        0.33797    0.37012    0.40188    1.000
    Si2034   Si       0.38747    0.40634    0.48985    1.000
    Si2035   Si       0.45603    0.40411    0.43957    1.000
    N2036    N        0.36405    0.41804    0.45611    1.000
    N2037    N        0.43077    0.40213    0.47715    1.000
    N2038    N        0.42250    0.39048    0.40784    1.000
    N2039    N        0.36831    0.36544    0.49428    1.000
    N2040    N        0.28446    0.40219    0.59082    1.000
    N2041    N        0.34746    0.37652    0.57006    1.000
    N2042    N        0.32762    0.41185    0.51645    1.000
    Si2043   Si       0.30466    0.37128    0.56933    1.000
    Si2044   Si       0.35359    0.41590    0.54992    1.000
    Si2045   Si       0.25693    0.38056    0.61868    1.000
    Si2046   Si       0.32591    0.37192    0.49950    1.000
    Si2047   Si       0.44330    0.39742    0.60053    1.000
    Si2048   Si       0.46290    0.40042    0.50720    1.000
    Si2049   Si       0.37551    0.36996    0.60617    1.000
    N2050    N        0.48453    0.39836    0.58709    1.000
    N2051    N        0.41534    0.36525    0.58830    1.000
    N2052    N        0.46093    0.36386    0.52872    1.000
    N2053    N        0.31222    0.39177    0.70959    1.000
    Si2054   Si       0.34519    0.41344    0.72802    1.000
    Si2055   Si       0.28778    0.40971    0.67734    1.000
    N2056    N        0.26658    0.37598    0.65975    1.000
    N2057    N        0.36302    0.37221    0.73887    1.000
    N2058    N        0.39798    0.36379    0.68426    1.000
    Si2059   Si       0.46910    0.41141    0.66679    1.000
    Si2060   Si       0.46760    0.37632    0.73311    1.000
    N2061    N        0.45853    0.37479    0.64421    1.000
    N2062    N        0.38217    0.40488    0.63130    1.000
    N2063    N        0.42971    0.39278    0.74701    1.000
    Si2064   Si       0.39366    0.40440    0.67274    1.000
    N2065    N        0.48704    0.40454    0.70621    1.000
    N2066    N        0.33335    0.38051    0.81060    1.000
    N2067    N        0.35819    0.38046    0.87085    1.000
    N2068    N        0.25163    0.42282    0.76804    1.000
    Si2069   Si       0.41652    0.40409    0.84196    1.000
    N2070    N        0.39018    0.41573    0.80821    1.000
    N2071    N        0.45232    0.41557    0.81751    1.000
    Si2072   Si       0.36641    0.36009    0.83252    1.000
    N2073    N        0.27492    0.41742    0.93938    1.000
    N2074    N        0.29165    0.37274    0.98543    1.000
    N2075    N        0.34204    0.37477    0.93672    1.000
    Si2076   Si       0.34927    0.41660    0.94111    1.000
    Si2077   Si       0.29197    0.41592    0.98036    1.000
    N2078    N        0.47970    0.36949    0.99217    1.000
    N2079    N        0.44091    0.38684    0.93364    1.000
    Si2080   Si       0.48108    0.38470    0.95208    1.000
    Si2081   Si       0.25876    0.46030    0.10296    1.000
    Si2082   Si       0.26744    0.43155    0.03761    1.000
    N2083    N        0.26720    0.46767    0.06002    1.000
    Si2084   Si       0.34116    0.46968    0.00400    1.000
    N2085    N        0.30850    0.41774    0.02763    1.000
    N2086    N        0.24630    0.42183    0.11452    1.000
    N2087    N        0.25813    0.44152    0.99469    1.000
    Si2088   Si       0.37639    0.45247    0.06500    1.000
    N2089    N        0.37405    0.44750    0.01993    1.000
    N2090    N        0.42288    0.45155    0.06511    1.000
    Si2091   Si       0.45488    0.43083    0.04199    1.000
    N2092    N        0.37607    0.45279    0.11528    1.000
    Si2093   Si       0.48653    0.42979    0.11687    1.000
    N2094    N        0.48680    0.44814    0.01917    1.000
    N2095    N        0.29577    0.47198    0.12380    1.000
    N2096    N        0.30399    0.45207    0.23376    1.000
    Si2097   Si       0.30729    0.44304    0.15317    1.000
    Si2098   Si       0.33800    0.46773    0.21445    1.000
    N2099    N        0.33384    0.47465    0.17097    1.000
    N2100    N        0.27392    0.42588    0.17676    1.000
    Si2101   Si       0.27509    0.42546    0.21825    1.000
    Si2102   Si       0.39703    0.46603    0.21710    1.000
    N2103    N        0.44911    0.42950    0.13895    1.000
    Si2104   Si       0.44049    0.47019    0.15412    1.000
    N2105    N        0.43124    0.46965    0.24239    1.000
    N2106    N        0.36633    0.43585    0.22310    1.000
    N2107    N        0.40294    0.47152    0.17526    1.000
    N2108    N        0.34127    0.46546    0.33867    1.000
    N2109    N        0.26993    0.47261    0.34478    1.000
    Si2110   Si       0.33435    0.42990    0.36419    1.000
    Si2111   Si       0.27005    0.42820    0.33528    1.000
    N2112    N        0.39756    0.45206    0.30363    1.000
    N2113    N        0.46293    0.43677    0.29583    1.000
    Si2114   Si       0.43285    0.46694    0.28542    1.000
    N2115    N        0.44150    0.43045    0.35969    1.000
    Si2116   Si       0.49175    0.43110    0.26255    1.000
    Si2117   Si       0.30149    0.47282    0.42950    1.000
    N2118    N        0.32122    0.43791    0.40655    1.000
    N2119    N        0.28479    0.44648    0.46665    1.000
    N2120    N        0.25572    0.46885    0.41845    1.000
    Si2121   Si       0.24249    0.44522    0.45204    1.000
    Si2122   Si       0.23422    0.46232    0.37883    1.000
    N2123    N        0.33551    0.48368    0.45619    1.000
    Si2124   Si       0.40684    0.42693    0.38468    1.000
    Si2125   Si       0.44039    0.47876    0.44478    1.000
    N2126    N        0.39321    0.46034    0.40822    1.000
    N2127    N        0.45752    0.44587    0.42279    1.000
    Si2128   Si       0.47412    0.44904    0.38376    1.000
    Si2129   Si       0.37194    0.46009    0.44703    1.000
    N2130    N        0.40461    0.47553    0.47287    1.000
    N2131    N        0.34393    0.44149    0.58328    1.000
    Si2132   Si       0.30962    0.43601    0.60683    1.000
    Si2133   Si       0.29486    0.44179    0.50697    1.000
    N2134    N        0.27924    0.46739    0.59249    1.000
    Si2135   Si       0.25191    0.43288    0.57827    1.000
    N2136    N        0.26405    0.42807    0.53214    1.000
    N2137    N        0.30710    0.48096    0.52553    1.000
    Si2138   Si       0.42364    0.44824    0.54945    1.000
    N2139    N        0.46034    0.43838    0.52960    1.000
    Si2140   Si       0.38139    0.44370    0.61046    1.000
    N2141    N        0.42272    0.43459    0.58978    1.000
    N2142    N        0.39061    0.42723    0.52876    1.000
    N2143    N        0.28644    0.47034    0.73685    1.000
    N2144    N        0.25425    0.43573    0.68855    1.000
    N2145    N        0.31173    0.43381    0.65018    1.000
    Si2146   Si       0.34490    0.45733    0.66835    1.000
    Si2147   Si       0.24979    0.47179    0.71464    1.000
    N2148    N        0.36482    0.47634    0.63312    1.000
    N2149    N        0.36544    0.43034    0.69446    1.000
    Si2150   Si       0.42649    0.45224    0.71229    1.000
    N2151    N        0.46615    0.46951    0.71287    1.000
    N2152    N        0.43001    0.42583    0.67836    1.000
    N2153    N        0.34273    0.44458    0.83961    1.000
    N2154    N        0.28325    0.46016    0.80539    1.000
    Si2155   Si       0.30402    0.46396    0.84406    1.000
    Si2156   Si       0.29191    0.44026    0.76776    1.000
    N2157    N        0.33304    0.42948    0.76541    1.000
    Si2158   Si       0.24053    0.45289    0.79851    1.000
    Si2159   Si       0.34796    0.41877    0.80452    1.000
    Si2160   Si       0.48257    0.43567    0.84233    1.000
    N2161    N        0.41315    0.45755    0.75458    1.000
    N2162    N        0.45710    0.47424    0.84781    1.000
    Si2163   Si       0.42417    0.42283    0.77992    1.000
    N2164    N        0.27820    0.45176    0.87475    1.000
    N2165    N        0.32739    0.44093    0.97293    1.000
    N2166    N        0.33789    0.43916    0.90719    1.000
    Si2167   Si       0.29459    0.44990    0.91495    1.000
    Si2168   Si       0.36147    0.42327    0.87311    1.000
    Si2169   Si       0.42430    0.46778    0.87746    1.000
    Si2170   Si       0.41918    0.42239    0.92222    1.000
    N2171    N        0.38941    0.42007    0.95610    1.000
    N2172    N        0.40587    0.42505    0.87967    1.000
    Si2173   Si       0.48365    0.45005    0.92053    1.000
    N2174    N        0.43905    0.46215    0.92108    1.000
    N2175    N        0.48496    0.42532    0.88453    1.000
    Si2176   Si       0.29978    0.50472    0.05158    1.000
    N2177    N        0.30379    0.49321    0.00846    1.000
    N2178    N        0.26004    0.53068    0.05311    1.000
    Si2179   Si       0.35950    0.52147    0.08067    1.000
    N2180    N        0.33875    0.48092    0.06186    1.000
    N2181    N        0.39752    0.50912    0.06181    1.000
    Si2182   Si       0.39969    0.51657    0.01777    1.000
    N2183    N        0.47117    0.49947    0.06108    1.000
    Si2184   Si       0.43282    0.49096    0.08040    1.000
    N2185    N        0.35300    0.51766    0.12429    1.000
    Si2186   Si       0.31373    0.50631    0.14219    1.000
    Si2187   Si       0.24243    0.51939    0.14898    1.000
    N2188    N        0.24178    0.49752    0.18499    1.000
    N2189    N        0.28412    0.53738    0.14640    1.000
    N2190    N        0.36849    0.49774    0.22887    1.000
    N2191    N        0.46489    0.53018    0.24185    1.000
    N2192    N        0.43344    0.49773    0.12206    1.000
    N2193    N        0.46933    0.48501    0.18396    1.000
    Si2194   Si       0.37253    0.48131    0.14620    1.000
    Si2195   Si       0.46604    0.49066    0.22717    1.000
    N2196    N        0.29709    0.51218    0.30059    1.000
    Si2197   Si       0.25447    0.49806    0.31053    1.000
    Si2198   Si       0.30910    0.49454    0.33879    1.000
    N2199    N        0.33110    0.52942    0.35476    1.000
    N2200    N        0.36798    0.52290    0.29897    1.000
    Si2201   Si       0.36833    0.53034    0.25574    1.000
    N2202    N        0.44165    0.50821    0.30023    1.000
    N2203    N        0.40466    0.50166    0.35384    1.000
    Si2204   Si       0.44579    0.51442    0.34422    1.000
    Si2205   Si       0.37696    0.48667    0.32257    1.000
    N2206    N        0.47183    0.48829    0.36538    1.000
    Si2207   Si       0.25436    0.51302    0.41432    1.000
    N2208    N        0.29866    0.51533    0.41168    1.000
    Si2209   Si       0.32561    0.50338    0.49282    1.000
    N2210    N        0.29788    0.53774    0.48378    1.000
    Si2211   Si       0.25318    0.54046    0.48803    1.000
    N2212    N        0.41841    0.53996    0.48309    1.000
    Si2213   Si       0.39690    0.50202    0.39521    1.000
    N2214    N        0.47650    0.48466    0.46949    1.000
    N2215    N        0.43301    0.51417    0.41761    1.000
    N2216    N        0.37160    0.53288    0.41181    1.000
    N2217    N        0.34325    0.51730    0.57712    1.000
    N2218    N        0.27835    0.52875    0.56895    1.000
    Si2219   Si       0.25033    0.49181    0.61439    1.000
    Si2220   Si       0.30660    0.49417    0.56561    1.000
    Si2221   Si       0.35892    0.51679    0.61736    1.000
    N2222    N        0.36157    0.51883    0.51134    1.000
    N2223    N        0.41882    0.49317    0.54450    1.000
    Si2224   Si       0.40232    0.50513    0.50529    1.000
    Si2225   Si       0.42296    0.52790    0.57414    1.000
    N2226    N        0.39807    0.53474    0.61193    1.000
    N2227    N        0.46231    0.53495    0.59350    1.000
    N2228    N        0.34019    0.49579    0.69388    1.000
    Si2229   Si       0.30421    0.50427    0.71662    1.000
    N2230    N        0.26378    0.51076    0.69904    1.000
    N2231    N        0.25603    0.53458    0.63072    1.000
    Si2232   Si       0.45410    0.50564    0.68940    1.000
    N2233    N        0.41150    0.49060    0.69129    1.000
    N2234    N        0.38602    0.53100    0.73924    1.000
    Si2235   Si       0.37804    0.51579    0.69837    1.000
    N2236    N        0.48395    0.50268    0.65688    1.000
    N2237    N        0.32324    0.50217    0.84211    1.000
    Si2238   Si       0.35233    0.53483    0.77228    1.000
    Si2239   Si       0.36161    0.48715    0.83265    1.000
    N2240    N        0.31691    0.53369    0.74735    1.000
    N2241    N        0.37215    0.50261    0.79472    1.000
    N2242    N        0.44229    0.51631    0.78530    1.000
    Si2243   Si       0.46602    0.50644    0.82055    1.000
    Si2244   Si       0.40658    0.49955    0.76574    1.000
    N2245    N        0.38945    0.48954    0.86752    1.000
    N2246    N        0.33954    0.51459    0.92256    1.000
    Si2247   Si       0.29556    0.52413    0.92673    1.000
    N2248    N        0.27996    0.48656    0.94032    1.000
    N2249    N        0.27788    0.53075    0.88734    1.000
    Si2250   Si       0.27214    0.48183    0.98240    1.000
    Si2251   Si       0.36744    0.52327    0.95468    1.000
    N2252    N        0.43414    0.51085    0.98811    1.000
    N2253    N        0.36554    0.50517    0.99185    1.000
    N2254    N        0.40135    0.52141    0.92868    1.000
    N2255    N        0.46350    0.52919    0.92761    1.000
    Si2256   Si       0.37260    0.51948    0.89331    1.000
    Si2257   Si       0.43651    0.49865    0.94352    1.000
    Si2258   Si       0.25360    0.57191    0.04749    1.000
    Si2259   Si       0.32981    0.58373    0.07663    1.000
    N2260    N        0.25333    0.58279    0.00611    1.000
    N2261    N        0.32101    0.54006    0.06626    1.000
    N2262    N        0.28026    0.59744    0.06936    1.000
    N2263    N        0.32729    0.58659    0.12064    1.000
    N2264    N        0.37509    0.56478    0.08746    1.000
    N2265    N        0.44526    0.55408    0.08726    1.000
    Si2266   Si       0.41094    0.57159    0.06507    1.000
    N2267    N        0.40095    0.55947    0.02271    1.000
    N2268    N        0.47409    0.56779    0.02519    1.000
    Si2269   Si       0.48085    0.54302    0.06099    1.000
    Si2270   Si       0.33950    0.57830    0.21143    1.000
    Si2271   Si       0.29797    0.57974    0.15047    1.000
    N2272    N        0.35605    0.56217    0.17515    1.000
    N2273    N        0.30041    0.58506    0.19455    1.000
    Si2274   Si       0.26955    0.58745    0.22313    1.000
    N2275    N        0.33179    0.55222    0.24639    1.000
    N2276    N        0.41224    0.56730    0.14288    1.000
    Si2277   Si       0.44469    0.54085    0.12901    1.000
    Si2278   Si       0.36653    0.56188    0.13268    1.000
    N2279    N        0.48792    0.53641    0.14422    1.000
    N2280    N        0.26788    0.56898    0.26191    1.000
    N2281    N        0.32052    0.57558    0.30795    1.000
    Si2282   Si       0.35158    0.55412    0.32571    1.000
    Si2283   Si       0.30279    0.54869    0.27886    1.000
    N2284    N        0.24339    0.53877    0.31970    1.000
    N2285    N        0.40252    0.55941    0.24886    1.000
    N2286    N        0.38047    0.57866    0.34596    1.000
    N2287    N        0.44195    0.57542    0.30071    1.000
    Si2288   Si       0.42497    0.57857    0.33876    1.000
    N2289    N        0.45172    0.55453    0.36354    1.000
    Si2290   Si       0.43811    0.54285    0.27290    1.000
    N2291    N        0.32994    0.58651    0.39557    1.000
    Si2292   Si       0.32566    0.57133    0.48929    1.000
    Si2293   Si       0.33098    0.54162    0.39579    1.000
    N2294    N        0.35985    0.56765    0.46576    1.000
    N2295    N        0.48485    0.56075    0.48361    1.000
    N2296    N        0.42991    0.57719    0.43551    1.000
    Si2297   Si       0.45259    0.55182    0.40940    1.000
    Si2298   Si       0.39530    0.54773    0.44582    1.000
    Si2299   Si       0.44498    0.57252    0.47876    1.000
    N2300    N        0.32868    0.57642    0.53367    1.000
    Si2301   Si       0.28795    0.54974    0.60716    1.000
    N2302    N        0.29017    0.58958    0.59125    1.000
    Si2303   Si       0.35781    0.54474    0.54687    1.000
    N2304    N        0.24465    0.58040    0.50172    1.000
    N2305    N        0.39961    0.56125    0.55368    1.000
    N2306    N        0.30381    0.57428    0.69097    1.000
    Si2307   Si       0.33366    0.56771    0.66202    1.000
    Si2308   Si       0.31380    0.57235    0.73197    1.000
    N2309    N        0.35235    0.59342    0.73269    1.000
    N2310    N        0.32326    0.53819    0.63244    1.000
    Si2311   Si       0.45290    0.57226    0.69521    1.000
    Si2312   Si       0.40729    0.56274    0.64369    1.000
    Si2313   Si       0.47851    0.53989    0.63287    1.000
    N2314    N        0.44603    0.55042    0.65973    1.000
    N2315    N        0.37429    0.55106    0.67230    1.000
    Si2316   Si       0.39420    0.57580    0.73702    1.000
    N2317    N        0.41772    0.59433    0.70513    1.000
    N2318    N        0.45992    0.53759    0.71937    1.000
    N2319    N        0.30218    0.56937    0.83313    1.000
    N2320    N        0.35614    0.57516    0.79154    1.000
    Si2321   Si       0.34246    0.58709    0.83162    1.000
    N2322    N        0.23913    0.59199    0.79525    1.000
    Si2323   Si       0.31359    0.53809    0.86215    1.000
    Si2324   Si       0.48628    0.58339    0.84653    1.000
    N2325    N        0.42470    0.58166    0.76760    1.000
    Si2326   Si       0.45887    0.54937    0.76365    1.000
    N2327    N        0.47023    0.54311    0.84350    1.000
    N2328    N        0.35578    0.55270    0.86962    1.000
    N2329    N        0.29545    0.55995    0.94840    1.000
    Si2330   Si       0.33018    0.58561    0.95155    1.000
    Si2331   Si       0.27384    0.59103    0.97134    1.000
    N2332    N        0.44003    0.57692    0.96612    1.000
    Si2333   Si       0.39903    0.58462    0.98685    1.000
    Si2334   Si       0.43057    0.55810    0.92790    1.000
    Si2335   Si       0.46377    0.54384    0.98855    1.000
    N2336    N        0.36749    0.56821    0.96390    1.000
    Si2337   Si       0.37087    0.58916    0.89066    1.000
    N2338    N        0.41487    0.58718    0.90096    1.000
    Si2339   Si       0.26933    0.63928    0.07153    1.000
    N2340    N        0.34457    0.61775    0.05035    1.000
    Si2341   Si       0.32038    0.63555    0.01727    1.000
    N2342    N        0.28291    0.65259    0.03230    1.000
    Si2343   Si       0.44677    0.63258    0.09181    1.000
    N2344    N        0.41670    0.61522    0.06689    1.000
    Si2345   Si       0.38741    0.63342    0.04170    1.000
    N2346    N        0.47862    0.63572    0.00423    1.000
    N2347    N        0.48604    0.62011    0.07315    1.000
    N2348    N        0.39450    0.62659    0.99933    1.000
    Si2349   Si       0.27549    0.64987    0.14555    1.000
    N2350    N        0.26398    0.60810    0.14474    1.000
    N2351    N        0.25872    0.63052    0.22974    1.000
    N2352    N        0.35899    0.61567    0.23017    1.000
    Si2353   Si       0.40297    0.60205    0.23766    1.000
    Si2354   Si       0.46703    0.60945    0.21327    1.000
    Si2355   Si       0.48544    0.64002    0.15207    1.000
    N2356    N        0.42418    0.60564    0.19999    1.000
    N2357    N        0.37842    0.63440    0.15432    1.000
    Si2358   Si       0.41267    0.60833    0.15776    1.000
    N2359    N        0.44507    0.62679    0.13531    1.000
    N2360    N        0.48796    0.64154    0.19542    1.000
    N2361    N        0.30775    0.63370    0.27869    1.000
    N2362    N        0.34212    0.63221    0.33860    1.000
    Si2363   Si       0.30957    0.61471    0.31643    1.000
    N2364    N        0.27228    0.61628    0.33745    1.000
    Si2365   Si       0.34052    0.64733    0.25300    1.000
    Si2366   Si       0.35918    0.60832    0.36952    1.000
    Si2367   Si       0.44865    0.61889    0.29625    1.000
    N2368    N        0.43318    0.62259    0.33842    1.000
    N2369    N        0.42544    0.63112    0.26039    1.000
    N2370    N        0.48814    0.64165    0.30083    1.000
    N2371    N        0.48323    0.59896    0.25213    1.000
    N2372    N        0.32184    0.64836    0.42057    1.000
    N2373    N        0.26142    0.61173    0.41532    1.000
    Si2374   Si       0.30428    0.60794    0.42496    1.000
    Si2375   Si       0.26551    0.61774    0.49160    1.000
    Si2376   Si       0.24763    0.65064    0.42913    1.000
    N2377    N        0.30083    0.60220    0.46889    1.000
    N2378    N        0.24311    0.64843    0.47132    1.000
    Si2379   Si       0.42544    0.64631    0.37330    1.000
    Si2380   Si       0.36607    0.65157    0.42340    1.000
    Si2381   Si       0.41800    0.61756    0.42953    1.000
    N2382    N        0.38830    0.63043    0.39362    1.000
    N2383    N        0.45057    0.64095    0.40890    1.000
    N2384    N        0.39179    0.63887    0.45783    1.000
    N2385    N        0.32514    0.63808    0.57881    1.000
    N2386    N        0.27906    0.62888    0.52990    1.000
    Si2387   Si       0.29876    0.63135    0.61482    1.000
    Si2388   Si       0.30764    0.60735    0.55537    1.000
    Si2389   Si       0.24913    0.65344    0.55178    1.000
    N2390    N        0.43869    0.60299    0.50798    1.000
    N2391    N        0.38694    0.63869    0.53667    1.000
    N2392    N        0.43485    0.61704    0.57675    1.000
    Si2393   Si       0.47618    0.61942    0.57405    1.000
    Si2394   Si       0.41910    0.63462    0.61164    1.000
    Si2395   Si       0.46622    0.63720    0.51109    1.000
    Si2396   Si       0.41116    0.60164    0.54419    1.000
    N2397    N        0.48248    0.65354    0.54710    1.000
    Si2398   Si       0.35566    0.64264    0.63948    1.000
    N2399    N        0.26687    0.62585    0.64907    1.000
    Si2400   Si       0.34689    0.63395    0.71582    1.000
    Si2401   Si       0.27849    0.61110    0.68673    1.000
    N2402    N        0.30566    0.63968    0.70343    1.000
    N2403    N        0.33535    0.60603    0.63863    1.000
    N2404    N        0.24717    0.60253    0.71539    1.000
    Si2405   Si       0.47285    0.63500    0.71322    1.000
    N2406    N        0.41054    0.60575    0.64130    1.000
    Si2407   Si       0.41085    0.62796    0.67987    1.000
    N2408    N        0.37130    0.64154    0.68127    1.000
    N2409    N        0.48579    0.60025    0.69493    1.000
    N2410    N        0.44073    0.65480    0.69141    1.000
    N2411    N        0.32175    0.62605    0.81453    1.000
    N2412    N        0.26581    0.62936    0.84137    1.000
    Si2413   Si       0.33782    0.61382    0.77570    1.000
    Si2414   Si       0.25565    0.61171    0.75586    1.000
    N2415    N        0.35236    0.65133    0.75494    1.000
    N2416    N        0.24971    0.65287    0.75977    1.000
    Si2417   Si       0.28004    0.59993    0.81213    1.000
    N2418    N        0.29609    0.59655    0.76455    1.000
    N2419    N        0.37297    0.61160    0.85187    1.000
    Si2420   Si       0.43701    0.61943    0.78532    1.000
    Si2421   Si       0.40036    0.64452    0.84598    1.000
    N2422    N        0.46775    0.63480    0.75806    1.000
    N2423    N        0.46387    0.60468    0.81619    1.000
    N2424    N        0.41485    0.65159    0.80408    1.000
    N2425    N        0.43858    0.64803    0.86885    1.000
    Si2426   Si       0.25116    0.64993    0.93573    1.000
    Si2427   Si       0.32534    0.64737    0.91143    1.000
    N2428    N        0.31219    0.60867    0.98404    1.000
    N2429    N        0.33976    0.60632    0.91437    1.000
    N2430    N        0.24397    0.60770    0.94452    1.000
    Si2431   Si       0.46745    0.61137    0.96748    1.000
    N2432    N        0.48365    0.59639    0.88685    1.000
    N2433    N        0.45510    0.63465    0.93441    1.000
    Si2434   Si       0.44597    0.61641    0.89440    1.000
    Si2435   Si       0.31187    0.69856    0.09924    1.000
    Si2436   Si       0.27644    0.69987    0.03021    1.000
    Si2437   Si       0.34962    0.69972    0.03225    1.000
    N2438    N        0.31530    0.70207    0.05658    1.000
    N2439    N        0.35045    0.69632    0.12166    1.000
    N2440    N        0.28837    0.66070    0.10389    1.000
    Si2441   Si       0.41792    0.69905    0.05779    1.000
    N2442    N        0.44287    0.67531    0.08234    1.000
    N2443    N        0.38359    0.67640    0.04636    1.000
    Si2444   Si       0.45611    0.69952    0.11633    1.000
    N2445    N        0.31164    0.66169    0.16792    1.000
    N2446    N        0.31275    0.68267    0.23859    1.000
    Si2447   Si       0.31666    0.69686    0.19752    1.000
    N2448    N        0.24779    0.68140    0.15516    1.000
    Si2449   Si       0.35405    0.66868    0.15449    1.000
    N2450    N        0.36076    0.69275    0.19153    1.000
    N2451    N        0.48817    0.68215    0.14088    1.000
    N2452    N        0.42072    0.71261    0.13960    1.000
    N2453    N        0.41601    0.70205    0.23268    1.000
    Si2454   Si       0.35277    0.67156    0.31904    1.000
    N2455    N        0.25641    0.68384    0.28510    1.000
    N2456    N        0.32162    0.69911    0.30716    1.000
    Si2457   Si       0.27775    0.65723    0.25815    1.000
    Si2458   Si       0.28131    0.71408    0.30742    1.000
    Si2459   Si       0.32378    0.71848    0.26573    1.000
    N2460    N        0.37073    0.66477    0.27863    1.000
    N2461    N        0.37735    0.69388    0.34681    1.000
    Si2462   Si       0.41235    0.67131    0.26565    1.000
    N2463    N        0.43608    0.68914    0.29696    1.000
    Si2464   Si       0.48041    0.68467    0.29313    1.000
    N2465    N        0.44048    0.68618    0.36328    1.000
    Si2466   Si       0.48073    0.70293    0.36196    1.000
    Si2467   Si       0.41709    0.70814    0.33217    1.000
    N2468    N        0.48771    0.68745    0.25079    1.000
    Si2469   Si       0.31083    0.69076    0.42057    1.000
    N2470    N        0.26718    0.68695    0.41705    1.000
    N2471    N        0.32168    0.71524    0.45530    1.000
    Si2472   Si       0.36482    0.71298    0.45566    1.000
    Si2473   Si       0.48841    0.65833    0.41592    1.000
    N2474    N        0.36906    0.69420    0.41602    1.000
    N2475    N        0.49201    0.69355    0.44109    1.000
    N2476    N        0.34971    0.69983    0.55674    1.000
    N2477    N        0.24429    0.68935    0.52645    1.000
    Si2478   Si       0.36021    0.65874    0.56500    1.000
    N2479    N        0.26296    0.65623    0.59203    1.000
    N2480    N        0.48003    0.70816    0.58306    1.000
    Si2481   Si       0.47948    0.68168    0.61786    1.000
    Si2482   Si       0.44754    0.71013    0.50247    1.000
    Si2483   Si       0.40410    0.69698    0.62051    1.000
    N2484    N        0.38141    0.65804    0.60682    1.000
    N2485    N        0.37765    0.69754    0.49423    1.000
    Si2486   Si       0.39715    0.65687    0.49883    1.000
    N2487    N        0.44003    0.66706    0.49717    1.000
    Si2488   Si       0.33474    0.70770    0.64280    1.000
    N2489    N        0.31820    0.66743    0.63757    1.000
    N2490    N        0.25789    0.68915    0.66408    1.000
    Si2491   Si       0.29570    0.67259    0.67712    1.000
    Si2492   Si       0.24415    0.66067    0.63264    1.000
    N2493    N        0.31509    0.71336    0.68299    1.000
    N2494    N        0.48723    0.70516    0.65451    1.000
    N2495    N        0.43857    0.67070    0.62281    1.000
    Si2496   Si       0.46315    0.69145    0.68757    1.000
    N2497    N        0.37688    0.71006    0.65041    1.000
    N2498    N        0.27900    0.69476    0.82068    1.000
    N2499    N        0.34215    0.69166    0.81713    1.000
    Si2500   Si       0.34790    0.69647    0.86062    1.000
    Si2501   Si       0.35884    0.68822    0.77604    1.000
    Si2502   Si       0.29962    0.65908    0.83519    1.000
    N2503    N        0.32403    0.71170    0.76149    1.000
    N2504    N        0.47232    0.69583    0.78626    1.000
    Si2505   Si       0.43146    0.69339    0.79858    1.000
    N2506    N        0.38684    0.67993    0.86733    1.000
    N2507    N        0.39825    0.71077    0.77473    1.000
    N2508    N        0.44197    0.71455    0.83750    1.000
    N2509    N        0.31966    0.66547    0.87289    1.000
    Si2510   Si       0.31784    0.68854    0.96206    1.000
    N2511    N        0.28717    0.70572    0.98830    1.000
    N2512    N        0.35864    0.66935    0.93708    1.000
    N2513    N        0.29383    0.66082    0.93876    1.000
    Si2514   Si       0.25579    0.71661    0.96124    1.000
    N2515    N        0.34090    0.67129    0.99879    1.000
    Si2516   Si       0.43048    0.69070    0.87256    1.000
    Si2517   Si       0.37728    0.70881    0.93854    1.000
    N2518    N        0.47642    0.69161    0.96698    1.000
    Si2519   Si       0.47662    0.67128    0.92767    1.000
    N2520    N        0.40439    0.69716    0.97211    1.000
    Si2521   Si       0.37939    0.66123    0.97675    1.000
    N2522    N        0.45979    0.70379    0.90319    1.000
    N2523    N        0.26413    0.74469    0.04251    1.000
    Si2524   Si       0.25415    0.74614    0.08523    1.000
    N2525    N        0.28356    0.72739    0.11332    1.000
    N2526    N        0.35547    0.74279    0.01680    1.000
    Si2527   Si       0.25674    0.76839    0.00791    1.000
    Si2528   Si       0.37559    0.76203    0.05046    1.000
    N2529    N        0.39546    0.73224    0.07594    1.000
    N2530    N        0.46938    0.73591    0.09388    1.000
    Si2531   Si       0.47935    0.72827    0.05250    1.000
    Si2532   Si       0.38441    0.72488    0.11856    1.000
    N2533    N        0.44432    0.71882    0.02804    1.000
    N2534    N        0.29166    0.73057    0.18805    1.000
    Si2535   Si       0.26056    0.76430    0.19465    1.000
    N2536    N        0.35147    0.74070    0.23991    1.000
    Si2537   Si       0.26650    0.72106    0.15264    1.000
    N2538    N        0.46972    0.71919    0.19028    1.000
    Si2539   Si       0.43855    0.74079    0.16719    1.000
    Si2540   Si       0.38253    0.72254    0.21592    1.000
    Si2541   Si       0.45722    0.71367    0.23370    1.000
    N2542    N        0.40576    0.75490    0.19374    1.000
    N2543    N        0.37552    0.76370    0.13446    1.000
    N2544    N        0.45014    0.77599    0.14288    1.000
    N2545    N        0.29191    0.74538    0.27933    1.000
    N2546    N        0.26373    0.72563    0.34450    1.000
    Si2547   Si       0.28723    0.74874    0.37474    1.000
    N2548    N        0.42291    0.75003    0.33651    1.000
    N2549    N        0.46325    0.75057    0.25427    1.000
    N2550    N        0.25285    0.75443    0.40444    1.000
    Si2551   Si       0.31178    0.75746    0.46258    1.000
    N2552    N        0.27372    0.76154    0.48451    1.000
    N2553    N        0.31718    0.71592    0.38479    1.000
    Si2554   Si       0.35968    0.71683    0.38008    1.000
    Si2555   Si       0.41676    0.76782    0.46499    1.000
    N2556    N        0.36950    0.75994    0.37999    1.000
    Si2557   Si       0.47167    0.73358    0.43372    1.000
    N2558    N        0.44175    0.73392    0.46529    1.000
    N2559    N        0.37959    0.75396    0.44647    1.000
    N2560    N        0.46894    0.73821    0.38780    1.000
    Si2561   Si       0.32942    0.73760    0.57186    1.000
    N2562    N        0.32330    0.73940    0.61424    1.000
    N2563    N        0.29507    0.76089    0.55517    1.000
    N2564    N        0.36119    0.75841    0.55049    1.000
    N2565    N        0.42016    0.73381    0.60628    1.000
    Si2566   Si       0.44729    0.73460    0.57319    1.000
    Si2567   Si       0.37836    0.72155    0.53132    1.000
    N2568    N        0.42302    0.72112    0.53828    1.000
    Si2569   Si       0.26728    0.73133    0.68216    1.000
    Si2570   Si       0.32562    0.73262    0.72335    1.000
    N2571    N        0.29561    0.76587    0.72927    1.000
    N2572    N        0.28584    0.76811    0.66714    1.000
    N2573    N        0.26138    0.71521    0.72533    1.000
    N2574    N        0.40314    0.77289    0.67103    1.000
    N2575    N        0.36955    0.73686    0.71876    1.000
    Si2576   Si       0.44041    0.76978    0.69782    1.000
    Si2577   Si       0.39437    0.73139    0.68306    1.000
    Si2578   Si       0.42118    0.77075    0.62728    1.000
    N2579    N        0.48645    0.76370    0.69842    1.000
    N2580    N        0.43574    0.72423    0.69395    1.000
    N2581    N        0.42797    0.77390    0.74024    1.000
    N2582    N        0.26806    0.75283    0.79458    1.000
    N2583    N        0.32676    0.75939    0.81628    1.000
    Si2584   Si       0.30973    0.72044    0.80307    1.000
    N2585    N        0.27751    0.76385    0.86748    1.000
    Si2586   Si       0.25939    0.75033    0.75087    1.000
    N2587    N        0.38957    0.76068    0.84465    1.000
    Si2588   Si       0.43160    0.75495    0.84559    1.000
    Si2589   Si       0.48243    0.72838    0.81565    1.000
    Si2590   Si       0.39462    0.74843    0.75277    1.000
    N2591    N        0.45624    0.76994    0.81403    1.000
    N2592    N        0.33710    0.73158    0.88274    1.000
    Si2593   Si       0.30257    0.75054    0.90218    1.000
    Si2594   Si       0.33680    0.76018    0.98043    1.000
    N2595    N        0.34162    0.72640    0.95474    1.000
    N2596    N        0.27574    0.72861    0.92493    1.000
    Si2597   Si       0.37313    0.75856    0.88537    1.000
    Si2598   Si       0.44145    0.74005    0.91711    1.000
    N2599    N        0.39848    0.73553    0.91253    1.000
    Si2600   Si       0.44181    0.71603    0.98386    1.000
    N2601    N        0.44725    0.76853    0.88509    1.000
    N2602    N        0.45028    0.75186    0.96023    1.000
    Si2603   Si       0.28059    0.81405    0.10493    1.000
    N2604    N        0.34486    0.78458    0.07186    1.000
    N2605    N        0.28884    0.82239    0.06399    1.000
    Si2606   Si       0.35669    0.79363    0.11165    1.000
    N2607    N        0.24558    0.78612    0.09882    1.000
    Si2608   Si       0.33139    0.82695    0.05956    1.000
    N2609    N        0.39827    0.79666    0.03502    1.000
    N2610    N        0.45454    0.80732    0.07777    1.000
    Si2611   Si       0.47722    0.80519    0.03970    1.000
    N2612    N        0.39057    0.81960    0.10327    1.000
    Si2613   Si       0.41484    0.82022    0.06467    1.000
    Si2614   Si       0.47259    0.77772    0.10509    1.000
    Si2615   Si       0.37672    0.81678    0.00006    1.000
    N2616    N        0.46205    0.81470    0.99943    1.000
    N2617    N        0.24729    0.77786    0.23402    1.000
    N2618    N        0.31766    0.80788    0.12762    1.000
    Si2619   Si       0.31517    0.81595    0.17040    1.000
    N2620    N        0.34825    0.79277    0.18857    1.000
    N2621    N        0.27312    0.80498    0.17808    1.000
    Si2622   Si       0.34866    0.78407    0.23164    1.000
    N2623    N        0.31271    0.80849    0.24278    1.000
    N2624    N        0.48486    0.83246    0.15266    1.000
    Si2625   Si       0.45315    0.81116    0.16902    1.000
    Si2626   Si       0.41871    0.81669    0.22311    1.000
    N2627    N        0.40906    0.82388    0.17767    1.000
    N2628    N        0.45726    0.80181    0.21116    1.000
    Si2629   Si       0.38591    0.78482    0.16998    1.000
    Si2630   Si       0.32575    0.81853    0.34339    1.000
    N2631    N        0.26169    0.81070    0.29165    1.000
    Si2632   Si       0.25686    0.80207    0.33308    1.000
    N2633    N        0.29473    0.78764    0.35006    1.000
    Si2634   Si       0.28108    0.78416    0.26371    1.000
    N2635    N        0.36448    0.80086    0.32565    1.000
    Si2636   Si       0.38450    0.81433    0.29070    1.000
    Si2637   Si       0.47043    0.82282    0.31011    1.000
    N2638    N        0.48284    0.79614    0.34260    1.000
    N2639    N        0.42824    0.82221    0.29720    1.000
    Si2640   Si       0.39160    0.77688    0.34929    1.000
    N2641    N        0.38645    0.80153    0.24808    1.000
    Si2642   Si       0.45319    0.77047    0.36172    1.000
    Si2643   Si       0.48515    0.78502    0.24023    1.000
    Si2644   Si       0.30662    0.82315    0.42020    1.000
    N2645    N        0.31649    0.77994    0.42521    1.000
    N2646    N        0.26555    0.82785    0.42736    1.000
    Si2647   Si       0.35963    0.77918    0.41644    1.000
    N2648    N        0.33295    0.78157    0.49483    1.000
    Si2649   Si       0.23907    0.79405    0.41937    1.000
    Si2650   Si       0.41659    0.82074    0.41146    1.000
    N2651    N        0.37681    0.81676    0.42262    1.000
    N2652    N        0.42136    0.79846    0.37595    1.000
    N2653    N        0.43890    0.79592    0.44221    1.000
    Si2654   Si       0.47272    0.81039    0.46486    1.000
    N2655    N        0.28245    0.80014    0.60767    1.000
    Si2656   Si       0.29644    0.78429    0.51767    1.000
    N2657    N        0.28382    0.82498    0.51625    1.000
    Si2658   Si       0.26022    0.77581    0.57808    1.000
    Si2659   Si       0.36830    0.78809    0.51966    1.000
    N2660    N        0.40781    0.79998    0.60062    1.000
    Si2661   Si       0.44458    0.78981    0.52772    1.000
    N2662    N        0.40862    0.77983    0.50583    1.000
    N2663    N        0.37226    0.82756    0.53664    1.000
    N2664    N        0.47737    0.78693    0.50021    1.000
    Si2665   Si       0.40060    0.82811    0.56919    1.000
    N2666    N        0.46374    0.77337    0.56467    1.000
    N2667    N        0.43790    0.83317    0.54610    1.000
    Si2668   Si       0.30441    0.79432    0.69667    1.000
    N2669    N        0.34404    0.80178    0.63814    1.000
    N2670    N        0.34620    0.80526    0.70375    1.000
    Si2671   Si       0.31003    0.77664    0.63087    1.000
    Si2672   Si       0.43868    0.81818    0.74437    1.000
    N2673    N        0.46135    0.77834    0.64232    1.000
    N2674    N        0.44929    0.81709    0.70004    1.000
    Si2675   Si       0.47532    0.81849    0.63827    1.000
    Si2676   Si       0.37250    0.80513    0.67039    1.000
    N2677    N        0.27994    0.81855    0.82756    1.000
    N2678    N        0.25496    0.82595    0.76016    1.000
    Si2679   Si       0.28912    0.77704    0.82796    1.000
    Si2680   Si       0.36395    0.78006    0.81751    1.000
    N2681    N        0.36094    0.82333    0.82974    1.000
    Si2682   Si       0.35968    0.81304    0.74378    1.000
    Si2683   Si       0.38513    0.83024    0.86621    1.000
    N2684    N        0.37223    0.78224    0.77369    1.000
    N2685    N        0.48239    0.80796    0.75331    1.000
    Si2686   Si       0.48702    0.78774    0.79186    1.000
    N2687    N        0.43142    0.83213    0.87099    1.000
    Si2688   Si       0.28924    0.79882    0.95269    1.000
    Si2689   Si       0.34602    0.81539    0.92795    1.000
    N2690    N        0.31412    0.78689    0.92075    1.000
    N2691    N        0.24944    0.80496    0.93773    1.000
    N2692    N        0.36066    0.79469    0.96552    1.000
    N2693    N        0.29588    0.77488    0.98827    1.000
    N2694    N        0.45716    0.81742    0.93825    1.000
    Si2695   Si       0.47315    0.78850    0.96667    1.000
    N2696    N        0.37681    0.79968    0.89750    1.000
    Si2697   Si       0.45930    0.80855    0.89571    1.000
    N2698    N        0.28041    0.86791    0.01270    1.000
    N2699    N        0.34101    0.86029    0.08645    1.000
    Si2700   Si       0.25332    0.88172    0.09418    1.000
    Si2701   Si       0.26050    0.83647    0.03551    1.000
    N2702    N        0.34096    0.83184    0.01786    1.000
    N2703    N        0.40408    0.86340    0.06030    1.000
    Si2704   Si       0.38381    0.86138    0.09967    1.000
    N2705    N        0.25985    0.85025    0.12317    1.000
    N2706    N        0.25453    0.84738    0.24054    1.000
    N2707    N        0.31104    0.85721    0.18529    1.000
    Si2708   Si       0.29537    0.84519    0.22463    1.000
    Si2709   Si       0.24665    0.83560    0.16188    1.000
    Si2710   Si       0.45896    0.88480    0.22114    1.000
    Si2711   Si       0.40279    0.86658    0.17053    1.000
    N2712    N        0.42825    0.85762    0.23971    1.000
    N2713    N        0.40770    0.88067    0.12829    1.000
    N2714    N        0.44245    0.88186    0.18024    1.000
    Si2715   Si       0.33860    0.87798    0.28798    1.000
    N2716    N        0.31164    0.84875    0.31409    1.000
    Si2717   Si       0.27936    0.85091    0.28073    1.000
    Si2718   Si       0.28028    0.86851    0.33896    1.000
    N2719    N        0.30879    0.87594    0.25470    1.000
    N2720    N        0.24900    0.84151    0.35271    1.000
    N2721    N        0.26036    0.88651    0.30230    1.000
    N2722    N        0.37367    0.85595    0.28237    1.000
    N2723    N        0.47855    0.86271    0.33311    1.000
    Si2724   Si       0.41699    0.86477    0.28167    1.000
    N2725    N        0.37732    0.89012    0.36375    1.000
    Si2726   Si       0.33680    0.88108    0.38191    1.000
    Si2727   Si       0.25242    0.86463    0.44639    1.000
    N2728    N        0.27349    0.88167    0.48066    1.000
    N2729    N        0.32430    0.84166    0.45749    1.000
    Si2730   Si       0.30467    0.85489    0.49345    1.000
    N2731    N        0.35569    0.88964    0.42078    1.000
    N2732    N        0.32590    0.83969    0.38199    1.000
    Si2733   Si       0.36356    0.85175    0.44409    1.000
    Si2734   Si       0.42984    0.87177    0.45969    1.000
    N2735    N        0.45760    0.84776    0.48226    1.000
    N2736    N        0.41981    0.86488    0.41904    1.000
    N2737    N        0.38851    0.86605    0.47630    1.000
    N2738    N        0.27295    0.86664    0.57445    1.000
    N2739    N        0.33127    0.87813    0.51775    1.000
    Si2740   Si       0.28295    0.84418    0.61050    1.000
    Si2741   Si       0.25384    0.84203    0.54219    1.000
    Si2742   Si       0.37267    0.86542    0.51585    1.000
    N2743    N        0.38199    0.85785    0.59377    1.000
    Si2744   Si       0.46974    0.85418    0.52411    1.000
    N2745    N        0.32117    0.86454    0.62158    1.000
    Si2746   Si       0.35822    0.84164    0.62552    1.000
    Si2747   Si       0.29058    0.84581    0.74325    1.000
    N2748    N        0.25418    0.85884    0.63930    1.000
    Si2749   Si       0.25051    0.84841    0.68094    1.000
    N2750    N        0.28607    0.83454    0.70107    1.000
    N2751    N        0.34173    0.88872    0.71273    1.000
    N2752    N        0.41158    0.88527    0.70054    1.000
    Si2753   Si       0.37061    0.88510    0.68096    1.000
    Si2754   Si       0.42761    0.84876    0.67894    1.000
    N2755    N        0.45094    0.85523    0.64279    1.000
    N2756    N        0.38417    0.84502    0.66209    1.000
    N2757    N        0.39683    0.83409    0.74032    1.000
    Si2758   Si       0.28743    0.85882    0.84446    1.000
    N2759    N        0.32265    0.87840    0.82393    1.000
    Si2760   Si       0.34846    0.85263    0.79980    1.000
    N2761    N        0.26011    0.87750    0.81449    1.000
    N2762    N        0.32839    0.83478    0.76537    1.000
    Si2763   Si       0.25001    0.83439    0.80118    1.000
    N2764    N        0.28147    0.88754    0.75363    1.000
    N2765    N        0.38269    0.87661    0.78771    1.000
    N2766    N        0.38752    0.87834    0.86095    1.000
    Si2767   Si       0.43776    0.87457    0.86295    1.000
    N2768    N        0.44972    0.86349    0.75729    1.000
    Si2769   Si       0.40784    0.87709    0.75091    1.000
    N2770    N        0.48541    0.86758    0.85428    1.000
    Si2771   Si       0.48272    0.89028    0.74874    1.000
    N2772    N        0.28099    0.85988    0.88666    1.000
    Si2773   Si       0.30676    0.86899    0.92123    1.000
    N2774    N        0.34627    0.85398    0.90831    1.000
    N2775    N        0.30479    0.83859    0.95363    1.000
    Si2776   Si       0.24763    0.83724    0.90765    1.000
    Si2777   Si       0.31627    0.85505    0.99187    1.000
    N2778    N        0.34045    0.88764    0.97682    1.000
    N2779    N        0.40074    0.84899    0.98332    1.000
    Si2780   Si       0.36866    0.88932    0.90030    1.000
    Si2781   Si       0.38274    0.88802    0.97378    1.000
    N2782    N        0.45563    0.88414    0.96252    1.000
    Si2783   Si       0.44231    0.84378    0.97020    1.000
    Si2784   Si       0.27480    0.90886    0.02925    1.000
    Si2785   Si       0.32604    0.90029    0.09300    1.000
    N2786    N        0.30094    0.93669    0.00597    1.000
    N2787    N        0.28835    0.90019    0.07213    1.000
    N2788    N        0.36003    0.92042    0.07030    1.000
    N2789    N        0.42900    0.93203    0.06262    1.000
    Si2790   Si       0.47113    0.92677    0.05184    1.000
    Si2791   Si       0.39583    0.90545    0.05084    1.000
    N2792    N        0.46595    0.93114    0.00823    1.000
    N2793    N        0.39872    0.91196    0.00583    1.000
    N2794    N        0.47591    0.90508    0.11805    1.000
    N2795    N        0.31997    0.91206    0.13422    1.000
    N2796    N        0.30586    0.93106    0.20031    1.000
    Si2797   Si       0.29202    0.91770    0.24129    1.000
    N2798    N        0.25016    0.92527    0.24104    1.000
    Si2799   Si       0.32523    0.89787    0.17648    1.000
    N2800    N        0.36947    0.89490    0.17903    1.000
    N2801    N        0.45013    0.92628    0.23393    1.000
    Si2802   Si       0.44169    0.90496    0.14218    1.000
    N2803    N        0.42375    0.94127    0.15914    1.000
    Si2804   Si       0.38241    0.93667    0.17628    1.000
    N2805    N        0.35023    0.91286    0.30975    1.000
    N2806    N        0.31336    0.94656    0.26501    1.000
    N2807    N        0.29679    0.89569    0.36745    1.000
    Si2808   Si       0.38855    0.91268    0.32933    1.000
    Si2809   Si       0.46341    0.90378    0.32688    1.000
    N2810    N        0.46410    0.92827    0.36395    1.000
    N2811    N        0.42522    0.89603    0.30974    1.000
    N2812    N        0.48699    0.92087    0.29572    1.000
    N2813    N        0.24665    0.89866    0.41969    1.000
    Si2814   Si       0.26988    0.92240    0.38987    1.000
    Si2815   Si       0.39452    0.89842    0.40272    1.000
    N2816    N        0.41343    0.93651    0.41051    1.000
    N2817    N        0.45163    0.90953    0.46162    1.000
    Si2818   Si       0.43133    0.94515    0.44873    1.000
    Si2819   Si       0.48834    0.90673    0.48379    1.000
    N2820    N        0.28283    0.92931    0.54077    1.000
    Si2821   Si       0.26935    0.91013    0.57855    1.000
    N2822    N        0.34254    0.91546    0.57923    1.000
    Si2823   Si       0.32521    0.91410    0.53892    1.000
    N2824    N        0.28794    0.92505    0.61489    1.000
    Si2825   Si       0.32594    0.90620    0.61953    1.000
    N2826    N        0.34840    0.94459    0.51536    1.000
    Si2827   Si       0.26751    0.92083    0.49782    1.000
    N2828    N        0.47834    0.89623    0.52477    1.000
    N2829    N        0.42121    0.91068    0.59928    1.000
    Si2830   Si       0.39014    0.93750    0.51837    1.000
    N2831    N        0.39150    0.89767    0.53726    1.000
    Si2832   Si       0.38375    0.89871    0.58026    1.000
    Si2833   Si       0.45593    0.89197    0.61886    1.000
    Si2834   Si       0.43430    0.94942    0.58246    1.000
    N2835    N        0.47675    0.95111    0.57170    1.000
    N2836    N        0.27949    0.92748    0.70241    1.000
    N2837    N        0.35821    0.91521    0.65121    1.000
    Si2838   Si       0.31641    0.91942    0.72799    1.000
    Si2839   Si       0.24818    0.90781    0.72965    1.000
    N2840    N        0.46687    0.93210    0.71383    1.000
    N2841    N        0.46751    0.92175    0.64994    1.000
    Si2842   Si       0.42254    0.92414    0.71246    1.000
    N2843    N        0.40723    0.94928    0.68164    1.000
    Si2844   Si       0.49304    0.91313    0.68328    1.000
    Si2845   Si       0.33184    0.91603    0.84568    1.000
    N2846    N        0.32533    0.92928    0.76855    1.000
    N2847    N        0.29448    0.93629    0.82783    1.000
    Si2848   Si       0.29392    0.90358    0.79460    1.000
    N2849    N        0.36335    0.93496    0.82314    1.000
    Si2850   Si       0.46385    0.92834    0.81738    1.000
    Si2851   Si       0.39246    0.90244    0.82343    1.000
    N2852    N        0.43561    0.89885    0.82746    1.000
    N2853    N        0.48368    0.92518    0.77827    1.000
    N2854    N        0.41169    0.92432    0.75428    1.000
    N2855    N        0.28963    0.90747    0.93809    1.000
    N2856    N        0.34138    0.91927    0.88767    1.000
    Si2857   Si       0.31871    0.92323    0.96882    1.000
    Si2858   Si       0.24782    0.90840    0.92603    1.000
    N2859    N        0.24103    0.93196    0.89186    1.000
    Si2860   Si       0.43489    0.91060    0.93492    1.000
    Si2861   Si       0.48843    0.90824    0.98134    1.000
    N2862    N        0.42974    0.95034    0.95277    1.000
    N2863    N        0.45186    0.89996    0.89555    1.000
    N2864    N        0.39487    0.89617    0.93193    1.000
    Si2865   Si       0.42625    0.94454    0.99599    1.000
    N2866    N        0.34184    0.98526    0.03411    1.000
    N2867    N        0.31597    0.96891    0.09567    1.000
    Si2868   Si       0.34986    0.96292    0.07049    1.000
    Si2869   Si       0.27909    0.99422    0.08922    1.000
    Si2870   Si       0.30113    0.97802    0.01684    1.000
    N2871    N        0.27183    0.99211    0.04609    1.000
    N2872    N        0.25030    0.97683    0.11500    1.000
    N2873    N        0.38508    0.98268    0.08657    1.000
    Si2874   Si       0.41708    0.97341    0.05844    1.000
    N2875    N        0.40569    0.97607    0.01495    1.000
    Si2876   Si       0.37374    0.00644    0.01521    1.000
    Si2877   Si       0.48667    0.00655    0.07931    1.000
    N2878    N        0.44481    0.00723    0.06364    1.000
    Si2879   Si       0.25180    0.99443    0.15560    1.000
    Si2880   Si       0.29606    0.97524    0.20064    1.000
    N2881    N        0.32006    0.99742    0.22779    1.000
    N2882    N        0.25117    0.97834    0.19725    1.000
    N2883    N        0.29869    0.99044    0.15713    1.000
    Si2884   Si       0.32126    0.95664    0.13688    1.000
    N2885    N        0.36108    0.96385    0.15113    1.000
    Si2886   Si       0.34757    0.96602    0.24333    1.000
    Si2887   Si       0.41915    0.95811    0.23546    1.000
    Si2888   Si       0.37926    0.99701    0.12958    1.000
    Si2889   Si       0.44036    0.98047    0.17265    1.000
    N2890    N        0.48424    0.98322    0.17574    1.000
    N2891    N        0.43675    0.99156    0.21436    1.000
    N2892    N        0.38129    0.95158    0.21763    1.000
    N2893    N        0.41713    0.00676    0.14753    1.000
    N2894    N        0.32522    0.97293    0.33905    1.000
    N2895    N        0.36688    0.97383    0.28190    1.000
    Si2896   Si       0.33404    0.95191    0.30313    1.000
    N2897    N        0.43662    0.96950    0.27765    1.000
    Si2898   Si       0.40404    0.98125    0.30360    1.000
    N2899    N        0.40219    0.95334    0.33825    1.000
    Si2900   Si       0.43123    0.95354    0.37184    1.000
    Si2901   Si       0.47283    0.94755    0.26637    1.000
    N2902    N        0.34833    0.00361    0.47600    1.000
    Si2903   Si       0.32059    0.98035    0.38305    1.000
    Si2904   Si       0.28042    0.97559    0.43964    1.000
    N2905    N        0.35775    0.99256    0.40087    1.000
    N2906    N        0.29454    0.95511    0.40606    1.000
    N2907    N        0.28840    0.95300    0.47690    1.000
    Si2908   Si       0.32290    0.97342    0.49568    1.000
    N2909    N        0.46077    0.97642    0.44104    1.000
    N2910    N        0.43681    0.99529    0.37793    1.000
    N2911    N        0.40466    0.95643    0.48118    1.000
    Si2912   Si       0.39173    0.99947    0.47846    1.000
    N2913    N        0.26942    0.98116    0.58221    1.000
    Si2914   Si       0.26989    0.97572    0.53860    1.000
    N2915    N        0.30527    0.99734    0.52657    1.000
    Si2916   Si       0.26766    0.96219    0.62063    1.000
    N2917    N        0.41050    0.96053    0.54882    1.000
    N2918    N        0.42984    0.97534    0.61792    1.000
    Si2919   Si       0.41482    0.00314    0.55116    1.000
    Si2920   Si       0.24315    0.98507    0.74570    1.000
    N2921    N        0.27826    0.99671    0.72108    1.000
    N2922    N        0.29376    0.97846    0.65024    1.000
    Si2923   Si       0.29698    0.96731    0.69271    1.000
    N2924    N        0.33731    0.95705    0.70425    1.000
    N2925    N        0.36574    0.98861    0.64192    1.000
    Si2926   Si       0.36577    0.95461    0.67044    1.000
    Si2927   Si       0.44166    0.95674    0.65514    1.000
    Si2928   Si       0.40160    0.00743    0.62529    1.000
    N2929    N        0.44002    0.98571    0.74400    1.000
    N2930    N        0.46400    0.98939    0.67782    1.000
    Si2931   Si       0.47117    0.97351    0.71806    1.000
    N2932    N        0.31191    0.99230    0.79872    1.000
    Si2933   Si       0.27621    0.97596    0.81839    1.000
    N2934    N        0.25332    0.99190    0.85400    1.000
    Si2935   Si       0.34440    0.96071    0.79390    1.000
    N2936    N        0.24514    0.97741    0.78745    1.000
    N2937    N        0.37759    0.98475    0.77974    1.000
    Si2938   Si       0.43738    0.98934    0.84655    1.000
    N2939    N        0.43793    0.96395    0.81099    1.000
    Si2940   Si       0.41479    0.96285    0.77430    1.000
    N2941    N        0.39921    0.01083    0.83973    1.000
    N2942    N        0.30113    0.97918    0.89705    1.000
    Si2943   Si       0.25850    0.97254    0.89220    1.000
    Si2944   Si       0.33826    0.95587    0.90847    1.000
    N2945    N        0.34846    0.95131    0.95183    1.000
    N2946    N        0.23922    0.98624    0.93022    1.000
    N2947    N        0.36528    0.99500    0.90549    1.000
    N2948    N        0.48537    0.99371    0.92499    1.000
    Si2949   Si       0.37893    0.99057    0.94629    1.000
    Si2950   Si       0.44369    0.98459    0.92873    1.000
    N2951    N        0.43497    0.97488    0.88719    1.000
    Si2952   Si       0.54268    0.03565    0.06558    1.000
    N2953    N        0.55958    0.02893    0.02416    1.000
    N2954    N        0.58733    0.03029    0.10074    1.000
    N2955    N        0.50119    0.03810    0.04715    1.000
    Si2956   Si       0.58976    0.05783    0.00985    1.000
    Si2957   Si       0.52034    0.03167    0.00308    1.000
    N2958    N        0.62588    0.05357    0.03034    1.000
    N2959    N        0.68835    0.02523    0.03489    1.000
    N2960    N        0.65107    0.05757    0.09448    1.000
    Si2961   Si       0.69245    0.06191    0.10412    1.000
    Si2962   Si       0.71981    0.05440    0.03410    1.000
    Si2963   Si       0.62970    0.01968    0.09478    1.000
    Si2964   Si       0.64777    0.01589    0.02893    1.000
    Si2965   Si       0.58401    0.02813    0.22637    1.000
    N2966    N        0.53673    0.02843    0.15015    1.000
    Si2967   Si       0.56713    0.04878    0.17143    1.000
    N2968    N        0.55588    0.06034    0.21124    1.000
    Si2969   Si       0.49541    0.02112    0.15774    1.000
    N2970    N        0.59555    0.01932    0.18492    1.000
    N2971    N        0.70488    0.02368    0.12147    1.000
    Si2972   Si       0.67574    0.01346    0.15298    1.000
    N2973    N        0.67485    0.03880    0.18819    1.000
    Si2974   Si       0.66386    0.02823    0.22829    1.000
    N2975    N        0.62282    0.03603    0.24295    1.000
    N2976    N        0.58112    0.04366    0.29759    1.000
    Si2977   Si       0.55357    0.03297    0.32916    1.000
    N2978    N        0.51805    0.02912    0.30666    1.000
    Si2979   Si       0.52041    0.01475    0.26678    1.000
    Si2980   Si       0.61902    0.02606    0.28498    1.000
    N2981    N        0.69726    0.04535    0.25236    1.000
    N2982    N        0.72140    0.04162    0.31869    1.000
    N2983    N        0.65144    0.04917    0.30279    1.000
    Si2984   Si       0.68858    0.02899    0.29322    1.000
    Si2985   Si       0.56337    0.02202    0.45327    1.000
    N2986    N        0.55297    0.05820    0.43001    1.000
    N2987    N        0.60731    0.02515    0.45961    1.000
    N2988    N        0.52341    0.00648    0.46499    1.000
    Si2989   Si       0.67111    0.01720    0.38851    1.000
    N2990    N        0.66027    0.05842    0.49190    1.000
    N2991    N        0.67221    0.01334    0.43422    1.000
    N2992    N        0.67525    0.05658    0.37232    1.000
    N2993    N        0.72011    0.05902    0.44846    1.000
    Si2994   Si       0.67942    0.05136    0.45366    1.000
    Si2995   Si       0.51839    0.02678    0.50403    1.000
    N2996    N        0.56072    0.03950    0.50318    1.000
    N2997    N        0.49916    0.06267    0.52307    1.000
    N2998    N        0.49136    0.06317    0.59697    1.000
    N2999    N        0.61356    0.03648    0.53954    1.000
    N3000    N        0.68205    0.02744    0.54697    1.000
    N3001    N        0.65096    0.01759    0.60776    1.000
    Si3002   Si       0.64379    0.01500    0.56560    1.000
    Si3003   Si       0.68155    0.06545    0.52847    1.000
    Si3004   Si       0.72351    0.05426    0.62178    1.000
    Si3005   Si       0.61787    0.04620    0.49681    1.000
    Si3006   Si       0.53153    0.06710    0.67572    1.000
    Si3007   Si       0.51260    0.03741    0.62724    1.000
    N3008    N        0.54375    0.02715    0.65558    1.000
    N3009    N        0.52815    0.05594    0.71809    1.000
    N3010    N        0.60759    0.03808    0.67181    1.000
    N3011    N        0.61331    0.03543    0.74455    1.000
    Si3012   Si       0.68896    0.04731    0.67739    1.000
    N3013    N        0.70299    0.02275    0.64550    1.000
    Si3014   Si       0.62975    0.04645    0.63261    1.000
    N3015    N        0.66518    0.01898    0.70299    1.000
    Si3016   Si       0.63031    0.04735    0.70632    1.000
    N3017    N        0.52945    0.04545    0.82779    1.000
    N3018    N        0.55993    0.02349    0.76943    1.000
    Si3019   Si       0.58709    0.05799    0.77045    1.000
    Si3020   Si       0.55352    0.01159    0.81111    1.000
    Si3021   Si       0.52130    0.02648    0.74799    1.000
    Si3022   Si       0.62468    0.04027    0.82980    1.000
    N3023    N        0.72704    0.02868    0.77388    1.000
    Si3024   Si       0.73314    0.02988    0.85800    1.000
    N3025    N        0.63311    0.05310    0.86951    1.000
    N3026    N        0.65548    0.01265    0.81140    1.000
    Si3027   Si       0.69655    0.00761    0.79803    1.000
    N3028    N        0.59458    0.05095    0.96590    1.000
    N3029    N        0.53244    0.02630    0.95796    1.000
    Si3030   Si       0.51129    0.05929    0.93444    1.000
    N3031    N        0.59142    0.01618    0.91127    1.000
    N3032    N        0.51158    0.04713    0.89275    1.000
    Si3033   Si       0.57866    0.01352    0.95359    1.000
    Si3034   Si       0.63165    0.02881    0.90341    1.000
    N3035    N        0.70040    0.02905    0.96174    1.000
    N3036    N        0.70398    0.04156    0.89134    1.000
    Si3037   Si       0.69326    0.01316    0.92220    1.000
    N3038    N        0.65466    0.05689    0.92965    1.000
    N3039    N        0.56556    0.09444    0.01442    1.000
    Si3040   Si       0.55349    0.11060    0.05464    1.000
    N3041    N        0.50815    0.11718    0.05236    1.000
    Si3042   Si       0.58462    0.07484    0.10849    1.000
    N3043    N        0.54794    0.07628    0.08107    1.000
    N3044    N        0.60560    0.10313    0.08292    1.000
    Si3045   Si       0.63717    0.08222    0.06205    1.000
    N3046    N        0.66589    0.11156    0.04529    1.000
    N3047    N        0.71497    0.07698    0.06990    1.000
    Si3048   Si       0.70476    0.11951    0.06447    1.000
    N3049    N        0.71817    0.08197    0.99945    1.000
    Si3050   Si       0.73110    0.12448    0.99791    1.000
    Si3051   Si       0.54585    0.10009    0.22450    1.000
    N3052    N        0.58503    0.08076    0.15096    1.000
    Si3053   Si       0.59203    0.11936    0.16845    1.000
    N3054    N        0.50351    0.10789    0.23785    1.000
    N3055    N        0.72149    0.09593    0.21182    1.000
    N3056    N        0.69768    0.08440    0.13952    1.000
    Si3057   Si       0.71611    0.12256    0.13565    1.000
    N3058    N        0.62585    0.12772    0.19666    1.000
    Si3059   Si       0.70420    0.07075    0.17974    1.000
    Si3060   Si       0.57528    0.08677    0.29134    1.000
    N3061    N        0.53426    0.09863    0.30144    1.000
    Si3062   Si       0.53109    0.10703    0.34369    1.000
    Si3063   Si       0.49637    0.11993    0.28678    1.000
    N3064    N        0.60863    0.10555    0.31311    1.000
    N3065    N        0.58019    0.10561    0.25313    1.000
    N3066    N        0.55569    0.06910    0.35659    1.000
    N3067    N        0.65113    0.11391    0.26165    1.000
    N3068    N        0.67827    0.10685    0.32505    1.000
    Si3069   Si       0.64700    0.09333    0.29968    1.000
    Si3070   Si       0.70469    0.07655    0.34265    1.000
    Si3071   Si       0.73002    0.07331    0.24702    1.000
    N3072    N        0.74134    0.10295    0.27710    1.000
    N3073    N        0.60394    0.08758    0.49058    1.000
    N3074    N        0.50815    0.09963    0.38090    1.000
    Si3075   Si       0.53153    0.09139    0.44461    1.000
    Si3076   Si       0.57098    0.08099    0.39630    1.000
    N3077    N        0.53619    0.10353    0.48803    1.000
    N3078    N        0.55956    0.11748    0.42183    1.000
    N3079    N        0.60919    0.09618    0.38168    1.000
    N3080    N        0.49010    0.09742    0.45007    1.000
    N3081    N        0.67772    0.11993    0.38575    1.000
    N3082    N        0.67951    0.12361    0.48044    1.000
    Si3083   Si       0.64260    0.10052    0.47015    1.000
    N3084    N        0.65288    0.07830    0.43357    1.000
    Si3085   Si       0.65011    0.08671    0.39289    1.000
    N3086    N        0.74045    0.12833    0.42043    1.000
    N3087    N        0.57811    0.09536    0.54937    1.000
    Si3088   Si       0.56667    0.08225    0.50894    1.000
    Si3089   Si       0.50832    0.10009    0.61322    1.000
    N3090    N        0.60819    0.06822    0.60299    1.000
    N3091    N        0.51582    0.12109    0.57694    1.000
    Si3092   Si       0.61487    0.07711    0.56147    1.000
    N3093    N        0.71044    0.09161    0.59895    1.000
    N3094    N        0.65540    0.09264    0.55296    1.000
    N3095    N        0.72094    0.08051    0.51844    1.000
    Si3096   Si       0.68424    0.11761    0.57496    1.000
    Si3097   Si       0.71498    0.12270    0.50680    1.000
    Si3098   Si       0.58164    0.09895    0.62187    1.000
    N3099    N        0.54250    0.08653    0.63370    1.000
    Si3100   Si       0.53649    0.09652    0.73198    1.000
    N3101    N        0.60187    0.11278    0.65940    1.000
    N3102    N        0.53490    0.11432    0.69094    1.000
    Si3103   Si       0.60949    0.12020    0.73661    1.000
    Si3104   Si       0.67651    0.09134    0.73981    1.000
    N3105    N        0.63712    0.09072    0.71588    1.000
    Si3106   Si       0.64177    0.10657    0.67053    1.000
    N3107    N        0.70467    0.07446    0.70781    1.000
    N3108    N        0.74206    0.07885    0.65293    1.000
    N3109    N        0.65962    0.07187    0.65321    1.000
    N3110    N        0.50935    0.11384    0.75982    1.000
    Si3111   Si       0.59889    0.11634    0.80778    1.000
    N3112    N        0.51085    0.11015    0.86237    1.000
    Si3113   Si       0.53165    0.07047    0.86257    1.000
    N3114    N        0.60618    0.07226    0.80704    1.000
    N3115    N        0.57622    0.09324    0.74804    1.000
    N3116    N        0.69007    0.08084    0.77781    1.000
    N3117    N        0.61830    0.12322    0.84510    1.000
    Si3118   Si       0.73053    0.07059    0.79014    1.000
    N3119    N        0.73252    0.06815    0.83453    1.000
    N3120    N        0.56941    0.08461    0.87567    1.000
    Si3121   Si       0.53548    0.10395    0.98469    1.000
    N3122    N        0.53939    0.09348    0.94263    1.000
    Si3123   Si       0.56244    0.10887    0.91071    1.000
    N3124    N        0.60507    0.10591    0.91915    1.000
    N3125    N        0.50597    0.07227    0.99708    1.000
    Si3126   Si       0.62073    0.08072    0.95006    1.000
    Si3127   Si       0.61330    0.09274    0.87539    1.000
    N3128    N        0.64957    0.09659    0.97725    1.000
    N3129    N        0.66822    0.11008    0.88018    1.000
    Si3130   Si       0.68778    0.07249    0.96734    1.000
    Si3131   Si       0.68368    0.07998    0.90270    1.000
    N3132    N        0.70219    0.10151    0.93776    1.000
    N3133    N        0.56133    0.14929    0.07132    1.000
    Si3134   Si       0.59896    0.14609    0.09321    1.000
    Si3135   Si       0.51661    0.15467    0.07338    1.000
    N3136    N        0.50606    0.18149    0.04171    1.000
    N3137    N        0.49706    0.15874    0.11276    1.000
    N3138    N        0.63678    0.16846    0.08464    1.000
    N3139    N        0.69754    0.14246    0.10089    1.000
    N3140    N        0.62861    0.16100    0.01099    1.000
    N3141    N        0.73407    0.13885    0.03919    1.000
    Si3142   Si       0.66986    0.17367    0.11259    1.000
    Si3143   Si       0.65676    0.12801    0.00576    1.000
    Si3144   Si       0.55064    0.16908    0.20737    1.000
    N3145    N        0.59375    0.14719    0.13546    1.000
    N3146    N        0.50551    0.17468    0.20671    1.000
    N3147    N        0.55627    0.12831    0.19347    1.000
    Si3148   Si       0.60645    0.18642    0.15056    1.000
    Si3149   Si       0.61439    0.12731    0.23978    1.000
    N3150    N        0.73615    0.16475    0.23868    1.000
    N3151    N        0.70225    0.14275    0.17240    1.000
    Si3152   Si       0.73040    0.13794    0.20282    1.000
    N3153    N        0.67174    0.17140    0.22387    1.000
    N3154    N        0.64932    0.18101    0.15510    1.000
    Si3155   Si       0.66151    0.15060    0.18568    1.000
    N3156    N        0.55896    0.14419    0.35548    1.000
    Si3157   Si       0.60234    0.12836    0.35115    1.000
    N3158    N        0.55193    0.17753    0.25004    1.000
    N3159    N        0.49309    0.13384    0.32891    1.000
    N3160    N        0.61757    0.16750    0.25916    1.000
    Si3161   Si       0.66010    0.15616    0.26446    1.000
    N3162    N        0.69317    0.16475    0.29268    1.000
    N3163    N        0.63348    0.15886    0.34932    1.000
    Si3164   Si       0.67597    0.14500    0.34716    1.000
    Si3165   Si       0.73178    0.14515    0.27773    1.000
    N3166    N        0.71714    0.16452    0.36451    1.000
    N3167    N        0.57594    0.15423    0.48565    1.000
    Si3168   Si       0.54135    0.14600    0.39617    1.000
    N3169    N        0.50989    0.17118    0.47026    1.000
    Si3170   Si       0.58393    0.14669    0.44303    1.000
    N3171    N        0.49995    0.16162    0.39762    1.000
    N3172    N        0.56404    0.17947    0.41996    1.000
    N3173    N        0.68157    0.17145    0.42907    1.000
    Si3174   Si       0.70436    0.14604    0.40513    1.000
    Si3175   Si       0.65874    0.15758    0.46173    1.000
    N3176    N        0.62483    0.13555    0.44822    1.000
    N3177    N        0.54224    0.16165    0.53933    1.000
    N3178    N        0.57521    0.13709    0.60162    1.000
    Si3179   Si       0.60527    0.17427    0.51066    1.000
    Si3180   Si       0.57123    0.17989    0.61335    1.000
    Si3181   Si       0.55556    0.12807    0.56426    1.000
    Si3182   Si       0.53213    0.14824    0.49885    1.000
    N3183    N        0.61661    0.16179    0.54992    1.000
    N3184    N        0.66416    0.14464    0.60322    1.000
    N3185    N        0.70502    0.14361    0.54396    1.000
    Si3186   Si       0.63720    0.17389    0.58466    1.000
    N3187    N        0.49962    0.17370    0.69312    1.000
    N3188    N        0.58858    0.15107    0.71498    1.000
    Si3189   Si       0.57023    0.13788    0.67829    1.000
    N3190    N        0.55556    0.17305    0.65415    1.000
    Si3191   Si       0.49548    0.13161    0.68122    1.000
    Si3192   Si       0.57014    0.18233    0.73735    1.000
    N3193    N        0.68197    0.13645    0.73903    1.000
    N3194    N        0.72882    0.14889    0.63420    1.000
    N3195    N        0.71787    0.18351    0.68957    1.000
    Si3196   Si       0.68308    0.16125    0.63763    1.000
    Si3197   Si       0.70325    0.14373    0.70341    1.000
    N3198    N        0.67470    0.13514    0.67100    1.000
    Si3199   Si       0.52425    0.14415    0.78955    1.000
    N3200    N        0.53475    0.17404    0.76194    1.000
    Si3201   Si       0.53599    0.14518    0.85360    1.000
    N3202    N        0.55836    0.13503    0.81579    1.000
    Si3203   Si       0.65762    0.14034    0.85084    1.000
    N3204    N        0.68347    0.14558    0.81573    1.000
    Si3205   Si       0.72366    0.16219    0.82207    1.000
    Si3206   Si       0.66381    0.15333    0.77614    1.000
    N3207    N        0.62417    0.13547    0.77569    1.000
    N3208    N        0.73176    0.18331    0.85988    1.000
    N3209    N        0.64860    0.17903    0.86881    1.000
    N3210    N        0.57700    0.16861    0.95891    1.000
    N3211    N        0.55276    0.14686    0.89423    1.000
    N3212    N        0.52337    0.14478    0.98981    1.000
    Si3213   Si       0.55982    0.17970    0.91949    1.000
    Si3214   Si       0.54038    0.18162    0.97745    1.000
    Si3215   Si       0.68324    0.14128    0.94652    1.000
    N3216    N        0.70838    0.16808    0.92188    1.000
    Si3217   Si       0.61730    0.18059    0.97046    1.000
    N3218    N        0.69440    0.14861    0.98754    1.000
    N3219    N        0.64558    0.16266    0.94231    1.000
    Si3220   Si       0.52636    0.21915    0.03673    1.000
    Si3221   Si       0.59215    0.23233    0.08138    1.000
    N3222    N        0.54789    0.23250    0.07205    1.000
    Si3223   Si       0.59239    0.23476    0.00636    1.000
    N3224    N        0.55369    0.21463    0.00053    1.000
    N3225    N        0.60893    0.21927    0.04360    1.000
    Si3226   Si       0.69835    0.23202    0.05080    1.000
    N3227    N        0.67907    0.19689    0.03503    1.000
    Si3228   Si       0.73184    0.22657    0.11228    1.000
    N3229    N        0.73412    0.21724    0.06909    1.000
    Si3230   Si       0.63930    0.18663    0.04484    1.000
    N3231    N        0.59523    0.21325    0.12058    1.000
    N3232    N        0.53804    0.22920    0.19821    1.000
    Si3233   Si       0.57891    0.22687    0.20906    1.000
    Si3234   Si       0.49962    0.21760    0.21377    1.000
    N3235    N        0.58788    0.18655    0.19098    1.000
    N3236    N        0.50235    0.23719    0.12959    1.000
    N3237    N        0.69920    0.22656    0.19242    1.000
    N3238    N        0.69601    0.20650    0.12440    1.000
    Si3239   Si       0.70492    0.19913    0.22764    1.000
    Si3240   Si       0.67122    0.21981    0.15815    1.000
    N3241    N        0.55605    0.22198    0.36394    1.000
    Si3242   Si       0.58761    0.19269    0.27260    1.000
    N3243    N        0.58960    0.19350    0.31620    1.000
    Si3244   Si       0.51558    0.18929    0.26991    1.000
    N3245    N        0.52088    0.19157    0.31446    1.000
    N3246    N        0.58969    0.23145    0.25040    1.000
    N3247    N        0.49706    0.22571    0.25687    1.000
    Si3248   Si       0.55395    0.18500    0.33855    1.000
    Si3249   Si       0.62478    0.20115    0.34213    1.000
    N3250    N        0.65876    0.21753    0.31740    1.000
    Si3251   Si       0.69719    0.20731    0.30179    1.000
    N3252    N        0.70802    0.22477    0.26315    1.000
    N3253    N        0.72489    0.22682    0.33127    1.000
    Si3254   Si       0.73332    0.20662    0.36867    1.000
    N3255    N        0.51399    0.22618    0.42122    1.000
    Si3256   Si       0.55467    0.22037    0.40824    1.000
    Si3257   Si       0.50077    0.18757    0.43149    1.000
    N3258    N        0.64446    0.18487    0.49104    1.000
    N3259    N        0.63530    0.21612    0.39294    1.000
    N3260    N        0.67469    0.23627    0.45320    1.000
    Si3261   Si       0.66553    0.22197    0.49347    1.000
    N3262    N        0.70998    0.22488    0.40052    1.000
    Si3263   Si       0.67031    0.21083    0.41614    1.000
    N3264    N        0.54793    0.20964    0.58890    1.000
    Si3265   Si       0.54921    0.20438    0.54596    1.000
    N3266    N        0.58567    0.21281    0.52161    1.000
    N3267    N        0.52306    0.23767    0.53077    1.000
    N3268    N        0.61067    0.19405    0.61310    1.000
    Si3269   Si       0.53407    0.24241    0.61385    1.000
    N3270    N        0.66812    0.20176    0.56974    1.000
    N3271    N        0.70414    0.21189    0.51290    1.000
    Si3272   Si       0.70281    0.18662    0.55006    1.000
    N3273    N        0.73835    0.20566    0.56919    1.000
    Si3274   Si       0.52855    0.20038    0.67433    1.000
    N3275    N        0.51547    0.23299    0.65199    1.000
    N3276    N        0.55108    0.21169    0.71068    1.000
    Si3277   Si       0.50444    0.18830    0.73501    1.000
    Si3278   Si       0.68801    0.21517    0.68156    1.000
    Si3279   Si       0.63355    0.22593    0.63075    1.000
    N3280    N        0.66377    0.23125    0.71302    1.000
    N3281    N        0.66711    0.20067    0.64603    1.000
    Si3282   Si       0.52942    0.22976    0.85635    1.000
    N3283    N        0.59928    0.21272    0.74896    1.000
    N3284    N        0.52521    0.18836    0.85054    1.000
    N3285    N        0.73127    0.19680    0.79310    1.000
    N3286    N        0.69031    0.22941    0.84034    1.000
    N3287    N        0.66689    0.19871    0.77508    1.000
    Si3288   Si       0.69692    0.22188    0.79675    1.000
    Si3289   Si       0.72852    0.22591    0.86207    1.000
    Si3290   Si       0.65511    0.22276    0.86432    1.000
    Si3291   Si       0.64029    0.22626    0.75236    1.000
    N3292    N        0.61756    0.24399    0.85508    1.000
    N3293    N        0.59364    0.20262    0.90524    1.000
    N3294    N        0.52153    0.19204    0.93746    1.000
    Si3295   Si       0.59174    0.24309    0.89137    1.000
    N3296    N        0.62043    0.22226    0.97350    1.000
    Si3297   Si       0.70064    0.20976    0.92358    1.000
    N3298    N        0.73104    0.23480    0.90495    1.000
    N3299    N        0.69348    0.21917    0.96523    1.000
    N3300    N        0.66079    0.22428    0.91097    1.000
    Si3301   Si       0.69993    0.19248    0.99723    1.000
    Si3302   Si       0.63429    0.18735    0.90895    1.000
    N3303    N        0.50629    0.28384    0.07652    1.000
    Si3304   Si       0.52707    0.25779    0.10114    1.000
    N3305    N        0.58692    0.27639    0.00908    1.000
    N3306    N        0.60935    0.27053    0.09470    1.000
    N3307    N        0.49224    0.24294    0.02453    1.000
    N3308    N        0.69975    0.26277    0.01855    1.000
    Si3309   Si       0.65222    0.27217    0.10558    1.000
    N3310    N        0.67291    0.25047    0.07677    1.000
    N3311    N        0.55504    0.27080    0.13124    1.000
    N3312    N        0.59665    0.25617    0.18442    1.000
    Si3313   Si       0.51933    0.25572    0.16676    1.000
    Si3314   Si       0.59900    0.25457    0.13788    1.000
    Si3315   Si       0.60070    0.29539    0.20637    1.000
    N3316    N        0.52142    0.29635    0.17773    1.000
    N3317    N        0.58022    0.30181    0.24500    1.000
    N3318    N        0.70213    0.29793    0.16991    1.000
    N3319    N        0.71531    0.28379    0.23262    1.000
    Si3320   Si       0.71903    0.26548    0.19270    1.000
    N3321    N        0.64588    0.25053    0.14256    1.000
    N3322    N        0.73775    0.26943    0.12121    1.000
    Si3323   Si       0.58845    0.26918    0.27267    1.000
    N3324    N        0.55701    0.27154    0.30260    1.000
    Si3325   Si       0.56825    0.25723    0.34156    1.000
    N3326    N        0.61272    0.25021    0.34569    1.000
    Si3327   Si       0.53023    0.30392    0.28576    1.000
    N3328    N        0.63030    0.27926    0.28488    1.000
    Si3329   Si       0.72075    0.27116    0.33669    1.000
    N3330    N        0.67955    0.28236    0.33363    1.000
    Si3331   Si       0.64688    0.25874    0.31864    1.000
    Si3332   Si       0.73288    0.25913    0.26548    1.000
    N3333    N        0.73704    0.28450    0.29807    1.000
    N3334    N        0.49916    0.27787    0.37162    1.000
    N3335    N        0.56745    0.28670    0.37351    1.000
    N3336    N        0.55061    0.28752    0.48252    1.000
    Si3337   Si       0.58423    0.28188    0.45277    1.000
    N3338    N        0.58409    0.24707    0.42633    1.000
    N3339    N        0.61360    0.27846    0.48310    1.000
    Si3340   Si       0.71631    0.24653    0.43856    1.000
    N3341    N        0.62763    0.28840    0.40168    1.000
    Si3342   Si       0.61168    0.25119    0.39024    1.000
    N3343    N        0.72199    0.28854    0.43055    1.000
    Si3344   Si       0.54406    0.27601    0.52396    1.000
    N3345    N        0.57930    0.27479    0.54727    1.000
    Si3346   Si       0.59585    0.27955    0.58730    1.000
    N3347    N        0.50063    0.27066    0.60399    1.000
    Si3348   Si       0.60184    0.25205    0.51697    1.000
    N3349    N        0.57016    0.26908    0.62030    1.000
    Si3350   Si       0.72718    0.24887    0.50642    1.000
    N3351    N        0.69763    0.26902    0.56689    1.000
    N3352    N        0.63057    0.25242    0.59300    1.000
    N3353    N        0.64585    0.24813    0.52247    1.000
    Si3354   Si       0.65186    0.29057    0.49891    1.000
    N3355    N        0.69902    0.28437    0.50021    1.000
    Si3356   Si       0.66100    0.24410    0.56368    1.000
    Si3357   Si       0.69852    0.30359    0.54088    1.000
    Si3358   Si       0.58370    0.27759    0.66067    1.000
    N3359    N        0.55737    0.27804    0.69443    1.000
    N3360    N        0.61117    0.27128    0.72563    1.000
    Si3361   Si       0.57418    0.24537    0.72660    1.000
    N3362    N        0.73592    0.27687    0.72392    1.000
    Si3363   Si       0.64332    0.26698    0.69716    1.000
    N3364    N        0.62194    0.25491    0.66144    1.000
    N3365    N        0.67396    0.29916    0.69407    1.000
    Si3366   Si       0.71689    0.28465    0.68606    1.000
    N3367    N        0.71534    0.24730    0.66428    1.000
    N3368    N        0.55723    0.27296    0.75996    1.000
    Si3369   Si       0.54368    0.28303    0.80030    1.000
    Si3370   Si       0.60617    0.29340    0.76282    1.000
    Si3371   Si       0.60023    0.25537    0.81734    1.000
    N3372    N        0.49829    0.27011    0.80957    1.000
    N3373    N        0.59406    0.29791    0.80926    1.000
    N3374    N        0.55732    0.24868    0.82561    1.000
    N3375    N        0.63276    0.25677    0.78609    1.000
    Si3376   Si       0.72979    0.28921    0.76459    1.000
    N3377    N        0.69890    0.26389    0.78224    1.000
    Si3378   Si       0.66338    0.28669    0.79299    1.000
    Si3379   Si       0.52918    0.28055    0.91144    1.000
    N3380    N        0.50275    0.27957    0.94370    1.000
    N3381    N        0.50686    0.30015    0.87868    1.000
    N3382    N        0.55030    0.24916    0.89038    1.000
    N3383    N        0.61126    0.26697    0.92093    1.000
    Si3384   Si       0.64437    0.24857    0.94482    1.000
    Si3385   Si       0.71024    0.26346    0.97667    1.000
    N3386    N        0.66963    0.28045    0.95818    1.000
    N3387    N        0.71184    0.30200    0.87451    1.000
    Si3388   Si       0.54185    0.34548    0.08457    1.000
    Si3389   Si       0.57394    0.31866    0.01373    1.000
    N3390    N        0.56621    0.32031    0.05881    1.000
    Si3391   Si       0.60014    0.31236    0.08299    1.000
    Si3392   Si       0.50464    0.34279    0.01390    1.000
    N3393    N        0.59837    0.35611    0.00833    1.000
    N3394    N        0.58892    0.32994    0.12041    1.000
    N3395    N        0.50765    0.35780    0.05712    1.000
    N3396    N        0.63335    0.33128    0.06353    1.000
    N3397    N        0.70186    0.33244    0.05594    1.000
    Si3398   Si       0.67105    0.34085    0.08458    1.000
    Si3399   Si       0.63651    0.35479    0.02655    1.000
    Si3400   Si       0.69731    0.30724    0.02163    1.000
    N3401    N        0.66301    0.33066    0.00254    1.000
    N3402    N        0.67454    0.30815    0.10985    1.000
    N3403    N        0.52480    0.33790    0.12542    1.000
    Si3404   Si       0.49809    0.31976    0.20523    1.000
    Si3405   Si       0.55408    0.31353    0.14780    1.000
    Si3406   Si       0.60395    0.35200    0.15488    1.000
    N3407    N        0.58421    0.32421    0.18033    1.000
    N3408    N        0.50493    0.35999    0.18813    1.000
    N3409    N        0.64176    0.30476    0.21576    1.000
    Si3410   Si       0.71424    0.30640    0.13069    1.000
    N3411    N        0.64663    0.35212    0.16265    1.000
    Si3412   Si       0.66996    0.32204    0.18809    1.000
    N3413    N        0.69485    0.34775    0.21494    1.000
    N3414    N        0.59596    0.34547    0.35639    1.000
    N3415    N        0.55284    0.34025    0.29656    1.000
    Si3416   Si       0.57348    0.34328    0.25669    1.000
    Si3417   Si       0.55998    0.35727    0.33746    1.000
    N3418    N        0.53060    0.34116    0.36827    1.000
    N3419    N        0.50856    0.31064    0.24748    1.000
    N3420    N        0.61634    0.35329    0.26063    1.000
    Si3421   Si       0.63742    0.31398    0.25889    1.000
    Si3422   Si       0.68104    0.32272    0.31791    1.000
    N3423    N        0.67717    0.32318    0.27596    1.000
    N3424    N        0.72044    0.33998    0.32682    1.000
    N3425    N        0.66376    0.34867    0.35011    1.000
    Si3426   Si       0.70948    0.32394    0.24696    1.000
    N3427    N        0.49611    0.32965    0.48043    1.000
    N3428    N        0.57331    0.32202    0.43180    1.000
    Si3429   Si       0.53642    0.32390    0.46026    1.000
    Si3430   Si       0.59715    0.31916    0.39269    1.000
    Si3431   Si       0.53098    0.30399    0.38819    1.000
    N3432    N        0.51182    0.30000    0.42738    1.000
    Si3433   Si       0.64695    0.35979    0.44670    1.000
    N3434    N        0.72327    0.34427    0.46750    1.000
    Si3435   Si       0.70059    0.30842    0.46338    1.000
    N3436    N        0.71752    0.34768    0.39506    1.000
    N3437    N        0.65961    0.32201    0.46522    1.000
    N3438    N        0.62369    0.35637    0.41033    1.000
    N3439    N        0.52035    0.34077    0.59859    1.000
    Si3440   Si       0.50049    0.34449    0.52062    1.000
    Si3441   Si       0.50367    0.30709    0.57973    1.000
    N3442    N        0.51730    0.30682    0.53912    1.000
    N3443    N        0.60991    0.32036    0.58764    1.000
    N3444    N        0.59586    0.36062    0.53067    1.000
    Si3445   Si       0.62717    0.34300    0.55480    1.000
    N3446    N        0.65722    0.31736    0.53442    1.000
    N3447    N        0.73076    0.33331    0.54083    1.000
    N3448    N        0.59410    0.32175    0.66021    1.000
    Si3449   Si       0.49770    0.35176    0.63692    1.000
    N3450    N        0.50908    0.31717    0.73750    1.000
    Si3451   Si       0.57326    0.35897    0.66399    1.000
    N3452    N        0.53124    0.36436    0.66062    1.000
    Si3453   Si       0.54979    0.30451    0.72960    1.000
    N3454    N        0.72679    0.32192    0.66680    1.000
    N3455    N        0.67926    0.35948    0.70875    1.000
    N3456    N        0.66049    0.33167    0.63159    1.000
    Si3457   Si       0.61918    0.33853    0.62603    1.000
    Si3458   Si       0.67941    0.32392    0.73261    1.000
    Si3459   Si       0.68424    0.34102    0.66928    1.000
    N3460    N        0.53441    0.32622    0.80041    1.000
    Si3461   Si       0.57115    0.34576    0.79013    1.000
    Si3462   Si       0.49837    0.33335    0.77770    1.000
    N3463    N        0.58045    0.32992    0.74893    1.000
    N3464    N        0.60503    0.36158    0.81061    1.000
    Si3465   Si       0.61613    0.32528    0.83332    1.000
    N3466    N        0.71271    0.35239    0.82255    1.000
    Si3467   Si       0.68841    0.32918    0.85103    1.000
    N3468    N        0.71310    0.32847    0.75955    1.000
    N3469    N        0.64636    0.31247    0.76142    1.000
    N3470    N        0.65701    0.31171    0.82821    1.000
    N3471    N        0.55811    0.31193    0.92098    1.000
    Si3472   Si       0.53978    0.34263    0.94632    1.000
    N3473    N        0.53993    0.33312    0.98940    1.000
    Si3474   Si       0.60108    0.31013    0.91390    1.000
    N3475    N        0.60949    0.32738    0.87544    1.000
    N3476    N        0.50279    0.35832    0.92584    1.000
    N3477    N        0.67318    0.35860    0.87965    1.000
    Si3478   Si       0.66303    0.32298    0.95951    1.000
    N3479    N        0.72349    0.30814    0.98416    1.000
    Si3480   Si       0.63394    0.35801    0.89561    1.000
    N3481    N        0.63182    0.33474    0.93410    1.000
    N3482    N        0.69397    0.34825    0.94187    1.000
    Si3483   Si       0.72559    0.35067    0.97159    1.000
    N3484    N        0.55605    0.38689    0.08559    1.000
    N3485    N        0.53795    0.40167    0.01589    1.000
    Si3486   Si       0.52626    0.40398    0.05850    1.000
    N3487    N        0.66747    0.38156    0.09928    1.000
    N3488    N        0.65139    0.39592    0.03560    1.000
    Si3489   Si       0.66061    0.41526    0.07363    1.000
    N3490    N        0.73696    0.41891    0.10211    1.000
    Si3491   Si       0.55645    0.40374    0.12654    1.000
    N3492    N        0.55667    0.37247    0.22980    1.000
    N3493    N        0.51441    0.40401    0.13504    1.000
    Si3494   Si       0.57470    0.40091    0.20044    1.000
    N3495    N        0.58127    0.38796    0.15909    1.000
    Si3496   Si       0.51876    0.38976    0.21638    1.000
    Si3497   Si       0.49881    0.36555    0.14688    1.000
    N3498    N        0.61372    0.41111    0.21442    1.000
    N3499    N        0.64298    0.42313    0.15024    1.000
    Si3500   Si       0.70884    0.38453    0.19936    1.000
    N3501    N        0.70522    0.38300    0.15640    1.000
    Si3502   Si       0.66389    0.38678    0.14219    1.000
    N3503    N        0.68071    0.41277    0.21587    1.000
    N3504    N        0.56014    0.40142    0.33856    1.000
    N3505    N        0.49334    0.39130    0.33642    1.000
    N3506    N        0.72147    0.40882    0.27641    1.000
    N3507    N        0.70029    0.40850    0.34775    1.000
    N3508    N        0.63111    0.40963    0.35854    1.000
    Si3509   Si       0.70375    0.36534    0.35804    1.000
    Si3510   Si       0.62972    0.36766    0.36896    1.000
    N3511    N        0.65125    0.41853    0.27552    1.000
    Si3512   Si       0.62495    0.39466    0.25142    1.000
    N3513    N        0.49044    0.38132    0.41821    1.000
    Si3514   Si       0.49650    0.36735    0.37539    1.000
    Si3515   Si       0.52344    0.39229    0.44495    1.000
    N3516    N        0.56064    0.39513    0.41752    1.000
    Si3517   Si       0.58638    0.36654    0.43792    1.000
    N3518    N        0.49127    0.41125    0.47185    1.000
    N3519    N        0.54812    0.36643    0.46999    1.000
    Si3520   Si       0.71723    0.36853    0.43350    1.000
    N3521    N        0.61477    0.38215    0.46767    1.000
    Si3522   Si       0.61896    0.41968    0.48909    1.000
    N3523    N        0.67840    0.38721    0.43826    1.000
    Si3524   Si       0.52486    0.37890    0.57783    1.000
    Si3525   Si       0.56468    0.38116    0.50931    1.000
    N3526    N        0.54709    0.41052    0.59538    1.000
    N3527    N        0.52804    0.37525    0.53356    1.000
    Si3528   Si       0.58642    0.41690    0.61458    1.000
    N3529    N        0.57680    0.42192    0.50743    1.000
    N3530    N        0.71883    0.38219    0.58762    1.000
    N3531    N        0.65123    0.37128    0.57806    1.000
    Si3532   Si       0.64690    0.41225    0.56594    1.000
    Si3533   Si       0.68233    0.36605    0.60754    1.000
    N3534    N        0.59651    0.37616    0.63174    1.000
    N3535    N        0.58458    0.38495    0.69810    1.000
    Si3536   Si       0.58868    0.37094    0.73782    1.000
    N3537    N        0.69172    0.38133    0.64691    1.000
    Si3538   Si       0.66316    0.39342    0.72788    1.000
    N3539    N        0.64594    0.41602    0.69389    1.000
    Si3540   Si       0.72366    0.40791    0.65669    1.000
    N3541    N        0.56098    0.38521    0.76919    1.000
    Si3542   Si       0.52256    0.40575    0.78263    1.000
    N3543    N        0.49337    0.37592    0.76666    1.000
    N3544    N        0.52032    0.42042    0.82379    1.000
    Si3545   Si       0.62756    0.39511    0.79467    1.000
    N3546    N        0.65228    0.40167    0.82923    1.000
    N3547    N        0.69642    0.39734    0.76017    1.000
    N3548    N        0.72549    0.40939    0.85403    1.000
    N3549    N        0.63020    0.37975    0.75257    1.000
    Si3550   Si       0.71823    0.36577    0.78065    1.000
    Si3551   Si       0.63087    0.42118    0.86412    1.000
    N3552    N        0.61636    0.39607    0.89672    1.000
    Si3553   Si       0.50499    0.38658    0.88970    1.000
    Si3554   Si       0.57604    0.40154    0.91529    1.000
    N3555    N        0.56473    0.37662    0.94960    1.000
    N3556    N        0.54632    0.39687    0.88192    1.000
    Si3557   Si       0.57244    0.38750    0.99109    1.000
    N3558    N        0.60030    0.42117    0.98817    1.000
    N3559    N        0.72201    0.39080    0.98799    1.000
    N3560    N        0.70407    0.41226    0.91780    1.000
    Si3561   Si       0.70288    0.37151    0.90719    1.000
    N3562    N        0.53216    0.44930    0.06846    1.000
    Si3563   Si       0.54466    0.47135    0.10233    1.000
    Si3564   Si       0.50609    0.47601    0.04626    1.000
    N3565    N        0.57123    0.44429    0.12565    1.000
    N3566    N        0.62463    0.43929    0.08282    1.000
    N3567    N        0.64048    0.46429    0.02186    1.000
    Si3568   Si       0.72014    0.45983    0.09541    1.000
    N3569    N        0.68445    0.45176    0.07143    1.000
    Si3570   Si       0.64481    0.47377    0.06352    1.000
    Si3571   Si       0.63910    0.42478    0.00486    1.000
    N3572    N        0.50577    0.47110    0.12315    1.000
    Si3573   Si       0.53557    0.46645    0.22006    1.000
    N3574    N        0.50027    0.46886    0.24434    1.000
    N3575    N        0.53961    0.42679    0.20520    1.000
    Si3576   Si       0.61482    0.44581    0.12525    1.000
    N3577    N        0.70203    0.47998    0.13124    1.000
    Si3578   Si       0.64708    0.43105    0.19399    1.000
    N3579    N        0.65842    0.47267    0.19492    1.000
    Si3580   Si       0.55802    0.45359    0.28876    1.000
    N3581    N        0.59672    0.44892    0.30521    1.000
    Si3582   Si       0.59351    0.42961    0.34305    1.000
    N3583    N        0.53271    0.46684    0.32322    1.000
    Si3584   Si       0.52362    0.42414    0.33081    1.000
    N3585    N        0.56369    0.47778    0.25309    1.000
    N3586    N        0.52829    0.42284    0.28296    1.000
    N3587    N        0.69162    0.46857    0.25880    1.000
    N3588    N        0.65880    0.46316    0.32656    1.000
    Si3589   Si       0.63587    0.45806    0.28953    1.000
    Si3590   Si       0.66630    0.43258    0.35772    1.000
    N3591    N        0.73312    0.46379    0.31679    1.000
    Si3592   Si       0.68925    0.42562    0.25586    1.000
    Si3593   Si       0.72977    0.41981    0.31731    1.000
    N3594    N        0.51615    0.44289    0.37665    1.000
    Si3595   Si       0.55037    0.43572    0.40191    1.000
    N3596    N        0.58210    0.45428    0.37806    1.000
    Si3597   Si       0.50545    0.45290    0.47109    1.000
    N3598    N        0.53599    0.45322    0.43999    1.000
    Si3599   Si       0.67684    0.43052    0.44088    1.000
    N3600    N        0.67350    0.44449    0.39879    1.000
    N3601    N        0.64258    0.44644    0.46121    1.000
    N3602    N        0.71017    0.44240    0.46799    1.000
    Si3603   Si       0.56797    0.46431    0.51466    1.000
    Si3604   Si       0.50983    0.43366    0.60188    1.000
    N3605    N        0.50651    0.46615    0.57401    1.000
    N3606    N        0.52509    0.46267    0.50747    1.000
    Si3607   Si       0.48988    0.47095    0.53298    1.000
    Si3608   Si       0.61257    0.47499    0.57569    1.000
    N3609    N        0.61320    0.43169    0.58313    1.000
    Si3610   Si       0.67347    0.45808    0.53714    1.000
    N3611    N        0.68566    0.43551    0.57072    1.000
    Si3612   Si       0.72483    0.42534    0.58580    1.000
    N3613    N        0.64569    0.42545    0.52264    1.000
    N3614    N        0.49274    0.43596    0.64198    1.000
    Si3615   Si       0.51499    0.47225    0.65645    1.000
    N3616    N        0.59453    0.45221    0.72344    1.000
    N3617    N        0.53123    0.46065    0.69440    1.000
    Si3618   Si       0.49927    0.44393    0.72022    1.000
    N3619    N        0.59026    0.43841    0.65141    1.000
    Si3620   Si       0.60251    0.42317    0.68870    1.000
    N3621    N        0.71069    0.43541    0.68744    1.000
    N3622    N        0.73531    0.43461    0.62588    1.000
    N3623    N        0.66861    0.45222    0.73810    1.000
    Si3624   Si       0.72931    0.47459    0.64087    1.000
    Si3625   Si       0.67106    0.45222    0.69561    1.000
    Si3626   Si       0.60504    0.46510    0.81510    1.000
    N3627    N        0.51607    0.44143    0.75816    1.000
    N3628    N        0.53804    0.46858    0.86427    1.000
    N3629    N        0.59439    0.43800    0.84757    1.000
    Si3630   Si       0.55228    0.42943    0.85034    1.000
    N3631    N        0.56692    0.47788    0.80499    1.000
    N3632    N        0.61961    0.43731    0.78619    1.000
    N3633    N        0.73972    0.45729    0.74977    1.000
    Si3634   Si       0.68923    0.42450    0.83908    1.000
    N3635    N        0.69612    0.45254    0.80581    1.000
    Si3636   Si       0.70156    0.44098    0.76484    1.000
    N3637    N        0.66549    0.44853    0.86796    1.000
    Si3638   Si       0.62707    0.45875    0.74926    1.000
    N3639    N        0.49889    0.42358    0.95294    1.000
    N3640    N        0.57101    0.44370    0.92603    1.000
    Si3641   Si       0.58373    0.45463    0.96624    1.000
    N3642    N        0.54512    0.46468    0.98407    1.000
    Si3643   Si       0.51560    0.43126    0.99223    1.000
    Si3644   Si       0.54991    0.47470    0.90532    1.000
    N3645    N        0.73756    0.45366    0.96071    1.000
    N3646    N        0.66990    0.43804    0.97552    1.000
    Si3647   Si       0.73415    0.43243    0.89107    1.000
    Si3648   Si       0.70552    0.42143    0.96106    1.000
    N3649    N        0.53183    0.50970    0.03735    1.000
    N3650    N        0.56663    0.50907    0.09470    1.000
    Si3651   Si       0.60952    0.51827    0.10820    1.000
    Si3652   Si       0.55083    0.53615    0.06576    1.000
    N3653    N        0.63092    0.51418    0.07002    1.000
    Si3654   Si       0.55546    0.53293    0.20196    1.000
    N3655    N        0.53335    0.49740    0.19014    1.000
    Si3656   Si       0.50199    0.49741    0.15923    1.000
    N3657    N        0.59477    0.53068    0.21773    1.000
    Si3658   Si       0.66741    0.49275    0.23325    1.000
    N3659    N        0.62922    0.48719    0.12986    1.000
    Si3660   Si       0.66499    0.49025    0.15476    1.000
    Si3661   Si       0.72154    0.51457    0.15046    1.000
    N3662    N        0.68188    0.53124    0.16358    1.000
    N3663    N        0.69703    0.52625    0.22992    1.000
    Si3664   Si       0.51528    0.48885    0.35575    1.000
    Si3665   Si       0.59465    0.50809    0.25676    1.000
    N3666    N        0.51983    0.53135    0.34893    1.000
    N3667    N        0.58511    0.53849    0.28824    1.000
    N3668    N        0.61228    0.51407    0.35041    1.000
    Si3669   Si       0.71512    0.49201    0.28641    1.000
    N3670    N        0.68460    0.51980    0.30241    1.000
    Si3671   Si       0.65569    0.50790    0.33490    1.000
    N3672    N        0.63274    0.49077    0.26143    1.000
    N3673    N        0.56315    0.51299    0.40976    1.000
    N3674    N        0.53263    0.51996    0.46384    1.000
    Si3675   Si       0.59457    0.49535    0.38488    1.000
    Si3676   Si       0.49426    0.51993    0.48637    1.000
    Si3677   Si       0.55873    0.48918    0.44884    1.000
    N3678    N        0.58711    0.48359    0.47963    1.000
    N3679    N        0.67726    0.51539    0.37170    1.000
    N3680    N        0.69797    0.49634    0.43225    1.000
    Si3681   Si       0.66660    0.48829    0.40395    1.000
    N3682    N        0.65472    0.51424    0.47892    1.000
    N3683    N        0.62463    0.49263    0.41700    1.000
    Si3684   Si       0.70110    0.48802    0.47721    1.000
    Si3685   Si       0.62750    0.48679    0.46115    1.000
    Si3686   Si       0.73625    0.51522    0.42857    1.000
    Si3687   Si       0.54156    0.49027    0.58281    1.000
    N3688    N        0.53246    0.53423    0.58627    1.000
    N3689    N        0.57282    0.48100    0.55502    1.000
    N3690    N        0.48955    0.51401    0.53049    1.000
    N3691    N        0.61494    0.49869    0.61799    1.000
    N3692    N        0.64648    0.49042    0.55414    1.000
    Si3693   Si       0.67549    0.52199    0.54173    1.000
    Si3694   Si       0.71222    0.52491    0.61095    1.000
    N3695    N        0.69890    0.48937    0.51989    1.000
    N3696    N        0.70204    0.53993    0.57300    1.000
    Si3697   Si       0.56284    0.48055    0.71610    1.000
    N3698    N        0.57791    0.50306    0.68099    1.000
    N3699    N        0.54229    0.50474    0.74579    1.000
    Si3700   Si       0.58285    0.48112    0.64442    1.000
    N3701    N        0.54440    0.47703    0.62443    1.000
    Si3702   Si       0.64089    0.51905    0.71775    1.000
    Si3703   Si       0.65131    0.50331    0.64492    1.000
    N3704    N        0.69028    0.49128    0.63012    1.000
    N3705    N        0.64902    0.48881    0.68617    1.000
    Si3706   Si       0.54096    0.49819    0.83275    1.000
    N3707    N        0.50612    0.49559    0.80626    1.000
    N3708    N        0.55486    0.53666    0.84489    1.000
    Si3709   Si       0.53324    0.47760    0.77800    1.000
    N3710    N        0.63545    0.49503    0.82510    1.000
    Si3711   Si       0.70737    0.49318    0.81586    1.000
    Si3712   Si       0.64847    0.51925    0.79054    1.000
    N3713    N        0.69312    0.51437    0.85305    1.000
    N3714    N        0.69195    0.51760    0.78264    1.000
    Si3715   Si       0.65756    0.49163    0.86347    1.000
    N3716    N        0.63062    0.50162    0.75536    1.000
    N3717    N        0.57053    0.52809    0.97882    1.000
    Si3718   Si       0.50539    0.52248    0.93399    1.000
    N3719    N        0.57853    0.50766    0.90441    1.000
    N3720    N        0.50219    0.52264    0.97815    1.000
    Si3721   Si       0.61402    0.51169    0.92888    1.000
    N3722    N        0.50970    0.48319    0.91971    1.000
    Si3723   Si       0.53951    0.50634    0.99551    1.000
    N3724    N        0.73579    0.51712    0.93223    1.000
    N3725    N        0.61706    0.48302    0.95869    1.000
    N3726    N        0.68599    0.50702    0.98162    1.000
    N3727    N        0.64974    0.51096    0.90316    1.000
    Si3728   Si       0.72641    0.50992    0.88870    1.000
    Si3729   Si       0.72788    0.49484    0.96950    1.000
    Si3730   Si       0.65312    0.47796    0.98205    1.000
    N3731    N        0.58296    0.56120    0.04853    1.000
    N3732    N        0.51616    0.56062    0.07763    1.000
    N3733    N        0.61523    0.55973    0.12066    1.000
    N3734    N        0.70020    0.57616    0.01488    1.000
    N3735    N        0.64801    0.58207    0.06172    1.000
    Si3736   Si       0.62451    0.54968    0.04710    1.000
    N3737    N        0.63651    0.54943    0.00520    1.000
    Si3738   Si       0.64406    0.59043    0.10482    1.000
    N3739    N        0.73633    0.54048    0.11889    1.000
    N3740    N        0.55234    0.55963    0.16597    1.000
    Si3741   Si       0.58994    0.57527    0.15139    1.000
    Si3742   Si       0.51041    0.57049    0.15805    1.000
    N3743    N        0.53515    0.54651    0.24229    1.000
    Si3744   Si       0.49616    0.56018    0.23473    1.000
    N3745    N        0.59036    0.59268    0.24582    1.000
    N3746    N        0.48916    0.57627    0.19461    1.000
    N3747    N        0.68084    0.58732    0.12694    1.000
    Si3748   Si       0.72528    0.58232    0.12510    1.000
    Si3749   Si       0.69434    0.56889    0.23750    1.000
    Si3750   Si       0.66747    0.57073    0.16843    1.000
    Si3751   Si       0.61872    0.56663    0.22574    1.000
    N3752    N        0.62336    0.58238    0.18489    1.000
    N3753    N        0.68858    0.59258    0.20115    1.000
    N3754    N        0.73852    0.57144    0.23400    1.000
    Si3755   Si       0.56116    0.56868    0.26824    1.000
    N3756    N        0.59027    0.58422    0.35055    1.000
    Si3757   Si       0.60320    0.54989    0.32713    1.000
    Si3758   Si       0.49663    0.56248    0.36654    1.000
    N3759    N        0.54158    0.59289    0.29660    1.000
    Si3760   Si       0.67040    0.56103    0.29222    1.000
    N3761    N        0.64312    0.56738    0.32642    1.000
    N3762    N        0.72160    0.56722    0.34316    1.000
    N3763    N        0.65252    0.56364    0.25256    1.000
    Si3764   Si       0.63305    0.59293    0.36065    1.000
    N3765    N        0.69805    0.59444    0.28234    1.000
    Si3766   Si       0.73219    0.59479    0.31129    1.000
    N3767    N        0.49588    0.55261    0.40856    1.000
    N3768    N        0.55990    0.57827    0.42722    1.000
    Si3769   Si       0.53473    0.54299    0.42602    1.000
    Si3770   Si       0.59401    0.59464    0.44922    1.000
    N3771    N        0.68121    0.58633    0.46283    1.000
    N3772    N        0.61245    0.57024    0.48094    1.000
    N3773    N        0.73038    0.54799    0.40254    1.000
    Si3774   Si       0.65327    0.55785    0.48307    1.000
    Si3775   Si       0.69661    0.55503    0.37601    1.000
    N3776    N        0.66568    0.58122    0.39060    1.000
    Si3777   Si       0.54414    0.56667    0.61387    1.000
    Si3778   Si       0.50889    0.58261    0.51213    1.000
    N3779    N        0.55057    0.57518    0.51950    1.000
    N3780    N        0.49417    0.58412    0.55484    1.000
    Si3781   Si       0.49513    0.54249    0.56559    1.000
    Si3782   Si       0.58801    0.59413    0.51063    1.000
    Si3783   Si       0.61364    0.54184    0.61533    1.000
    N3784    N        0.61498    0.56631    0.58156    1.000
    N3785    N        0.65973    0.55980    0.52704    1.000
    Si3786   Si       0.64543    0.58616    0.55620    1.000
    N3787    N        0.72333    0.56505    0.50964    1.000
    Si3788   Si       0.71216    0.57724    0.55097    1.000
    Si3789   Si       0.52421    0.59146    0.67759    1.000
    N3790    N        0.55042    0.56956    0.70743    1.000
    N3791    N        0.51423    0.56616    0.64407    1.000
    N3792    N        0.57901    0.55394    0.63838    1.000
    Si3793   Si       0.59259    0.58596    0.72056    1.000
    Si3794   Si       0.57779    0.54640    0.68023    1.000
    N3795    N        0.60897    0.54841    0.71112    1.000
    Si3796   Si       0.53550    0.54899    0.74681    1.000
    N3797    N        0.71507    0.55098    0.64510    1.000
    N3798    N        0.68056    0.53906    0.71232    1.000
    N3799    N        0.64615    0.54868    0.64884    1.000
    Si3800   Si       0.68226    0.55773    0.67412    1.000
    Si3801   Si       0.63592    0.59460    0.65671    1.000
    Si3802   Si       0.70546    0.54080    0.74927    1.000
    N3803    N        0.56742    0.56130    0.77503    1.000
    Si3804   Si       0.55637    0.56847    0.81659    1.000
    N3805    N        0.49984    0.56683    0.76743    1.000
    Si3806   Si       0.60520    0.58125    0.78298    1.000
    N3807    N        0.52313    0.59381    0.82854    1.000
    Si3808   Si       0.67322    0.59277    0.79132    1.000
    N3809    N        0.64229    0.56272    0.79291    1.000
    Si3810   Si       0.69778    0.55911    0.85869    1.000
    N3811    N        0.70478    0.58411    0.76139    1.000
    N3812    N        0.70066    0.58711    0.82724    1.000
    Si3813   Si       0.56600    0.54456    0.88614    1.000
    Si3814   Si       0.60073    0.55605    0.98075    1.000
    N3815    N        0.52859    0.54973    0.90946    1.000
    N3816    N        0.59137    0.57910    0.88446    1.000
    Si3817   Si       0.51621    0.58997    0.91442    1.000
    N3818    N        0.50592    0.59560    0.95819    1.000
    Si3819   Si       0.59334    0.59423    0.92848    1.000
    N3820    N        0.62068    0.55519    0.93933    1.000
    Si3821   Si       0.67912    0.55117    0.98863    1.000
    Si3822   Si       0.65977    0.54982    0.92098    1.000
    N3823    N        0.67060    0.57404    0.88745    1.000
    N3824    N        0.68683    0.56757    0.94851    1.000
    N3825    N        0.59794    0.63084    0.03148    1.000
    Si3826   Si       0.58845    0.63867    0.10786    1.000
    N3827    N        0.55873    0.61357    0.08780    1.000
    N3828    N        0.53558    0.60406    0.02168    1.000
    Si3829   Si       0.51798    0.60130    0.09519    1.000
    Si3830   Si       0.56989    0.60258    0.04796    1.000
    Si3831   Si       0.49363    0.60606    0.03197    1.000
    N3832    N        0.63058    0.63248    0.10081    1.000
    N3833    N        0.68572    0.63789    0.05784    1.000
    Si3834   Si       0.67170    0.60392    0.03290    1.000
    N3835    N        0.65615    0.62340    0.99619    1.000
    N3836    N        0.58475    0.61884    0.14828    1.000
    N3837    N        0.50838    0.60735    0.13635    1.000
    N3838    N        0.59683    0.65356    0.20811    1.000
    N3839    N        0.53863    0.64001    0.24763    1.000
    Si3840   Si       0.61466    0.62630    0.18001    1.000
    Si3841   Si       0.58191    0.63468    0.24591    1.000
    Si3842   Si       0.73681    0.60171    0.20238    1.000
    N3843    N        0.65093    0.64448    0.16868    1.000
    N3844    N        0.66816    0.64820    0.23984    1.000
    Si3845   Si       0.67975    0.63582    0.20072    1.000
    N3846    N        0.72202    0.64291    0.19526    1.000
    Si3847   Si       0.51458    0.61959    0.27672    1.000
    Si3848   Si       0.55598    0.60592    0.33495    1.000
    N3849    N        0.56034    0.65023    0.32883    1.000
    N3850    N        0.60433    0.65404    0.27883    1.000
    N3851    N        0.52317    0.59776    0.36394    1.000
    N3852    N        0.63324    0.63623    0.36125    1.000
    Si3853   Si       0.69947    0.63872    0.26908    1.000
    N3854    N        0.74056    0.65486    0.26300    1.000
    Si3855   Si       0.53650    0.63838    0.47018    1.000
    N3856    N        0.51805    0.62985    0.43289    1.000
    Si3857   Si       0.54024    0.60881    0.40269    1.000
    N3858    N        0.56856    0.63923    0.39164    1.000
    N3859    N        0.57569    0.62030    0.47770    1.000
    Si3860   Si       0.61081    0.64630    0.39742    1.000
    N3861    N        0.50372    0.62241    0.49721    1.000
    Si3862   Si       0.66566    0.60715    0.42638    1.000
    Si3863   Si       0.71621    0.60074    0.48420    1.000
    N3864    N        0.62340    0.61516    0.42587    1.000
    N3865    N        0.68365    0.64796    0.41808    1.000
    N3866    N        0.55491    0.60637    0.59991    1.000
    Si3867   Si       0.59782    0.60990    0.58561    1.000
    N3868    N        0.49331    0.63724    0.61042    1.000
    N3869    N        0.61239    0.61631    0.54070    1.000
    Si3870   Si       0.53404    0.63867    0.62191    1.000
    N3871    N        0.71034    0.63404    0.51222    1.000
    N3872    N        0.68300    0.60761    0.56857    1.000
    Si3873   Si       0.68598    0.64992    0.57811    1.000
    N3874    N        0.62180    0.61509    0.62113    1.000
    Si3875   Si       0.74207    0.63820    0.54193    1.000
    N3876    N        0.54259    0.62788    0.66270    1.000
    Si3877   Si       0.58121    0.64309    0.67821    1.000
    N3878    N        0.60549    0.60702    0.68561    1.000
    N3879    N        0.73877    0.60247    0.68960    1.000
    Si3880   Si       0.70448    0.62753    0.68904    1.000
    N3881    N        0.71013    0.64387    0.73051    1.000
    N3882    N        0.67413    0.60133    0.67532    1.000
    N3883    N        0.72112    0.65681    0.66171    1.000
    Si3884   Si       0.59967    0.61270    0.85917    1.000
    N3885    N        0.52993    0.63668    0.77526    1.000
    Si3886   Si       0.50072    0.60575    0.79024    1.000
    N3887    N        0.57886    0.64939    0.86638    1.000
    N3888    N        0.60533    0.61120    0.75146    1.000
    N3889    N        0.59132    0.59499    0.82111    1.000
    N3890    N        0.73770    0.63679    0.79295    1.000
    Si3891   Si       0.73317    0.61612    0.75438    1.000
    N3892    N        0.65594    0.63262    0.79147    1.000
    N3893    N        0.64059    0.62794    0.85782    1.000
    Si3894   Si       0.63095    0.64679    0.75706    1.000
    Si3895   Si       0.74031    0.60443    0.82243    1.000
    N3896    N        0.58340    0.59657    0.97496    1.000
    N3897    N        0.55364    0.61475    0.92219    1.000
    Si3898   Si       0.54285    0.61253    0.97770    1.000
    Si3899   Si       0.61362    0.62368    0.98882    1.000
    N3900    N        0.53769    0.65757    0.97760    1.000
    Si3901   Si       0.72360    0.65131    0.87737    1.000
    N3902    N        0.69674    0.63159    0.90406    1.000
    Si3903   Si       0.65807    0.61453    0.89390    1.000
    N3904    N        0.71464    0.62703    0.96852    1.000
    N3905    N        0.62573    0.62370    0.92265    1.000
    Si3906   Si       0.71082    0.60251    0.93207    1.000
    Si3907   Si       0.68202    0.65343    0.97765    1.000
    Si3908   Si       0.73217    0.59945    0.99676    1.000
    N3909    N        0.58029    0.67878    0.09572    1.000
    Si3910   Si       0.60368    0.67233    0.02584    1.000
    N3911    N        0.50874    0.70570    0.02484    1.000
    N3912    N        0.57532    0.70438    0.03312    1.000
    Si3913   Si       0.50003    0.67306    0.99736    1.000
    N3914    N        0.63559    0.68942    0.04962    1.000
    Si3915   Si       0.71537    0.69593    0.10450    1.000
    N3916    N        0.67505    0.68339    0.11327    1.000
    Si3917   Si       0.65528    0.66353    0.08051    1.000
    N3918    N        0.70395    0.68304    0.00402    1.000
    Si3919   Si       0.72060    0.66039    0.03751    1.000
    N3920    N        0.73837    0.68393    0.06953    1.000
    Si3921   Si       0.58171    0.68890    0.19101    1.000
    N3922    N        0.53762    0.68544    0.18992    1.000
    Si3923   Si       0.51376    0.66569    0.22181    1.000
    Si3924   Si       0.50798    0.70936    0.16880    1.000
    N3925    N        0.73863    0.67338    0.13479    1.000
    Si3926   Si       0.72628    0.67974    0.17528    1.000
    Si3927   Si       0.65653    0.68592    0.15408    1.000
    N3928    N        0.68642    0.70163    0.18048    1.000
    N3929    N        0.61842    0.70594    0.16446    1.000
    Si3930   Si       0.58860    0.67740    0.31032    1.000
    Si3931   Si       0.54716    0.66633    0.36601    1.000
    N3932    N        0.55672    0.70759    0.35799    1.000
    N3933    N        0.49874    0.71004    0.32278    1.000
    N3934    N        0.57039    0.71260    0.29229    1.000
    N3935    N        0.62561    0.69363    0.33118    1.000
    Si3936   Si       0.64437    0.66931    0.27096    1.000
    N3937    N        0.69381    0.68332    0.36259    1.000
    Si3938   Si       0.65849    0.66525    0.34019    1.000
    N3939    N        0.67397    0.65877    0.29999    1.000
    N3940    N        0.50482    0.67029    0.37683    1.000
    N3941    N        0.54065    0.67892    0.48275    1.000
    Si3942   Si       0.52810    0.71326    0.45846    1.000
    N3943    N        0.55603    0.71467    0.42532    1.000
    Si3944   Si       0.66338    0.68306    0.43322    1.000
    Si3945   Si       0.63252    0.71026    0.49434    1.000
    N3946    N        0.73058    0.70955    0.41318    1.000
    N3947    N        0.65704    0.67984    0.47540    1.000
    Si3948   Si       0.71792    0.67117    0.39771    1.000
    N3949    N        0.61977    0.68156    0.41755    1.000
    N3950    N        0.60312    0.68950    0.51809    1.000
    Si3951   Si       0.57037    0.69144    0.58742    1.000
    Si3952   Si       0.56125    0.70055    0.51404    1.000
    Si3953   Si       0.50233    0.69182    0.55016    1.000
    N3954    N        0.54495    0.69578    0.55460    1.000
    N3955    N        0.60206    0.66391    0.58271    1.000
    N3956    N        0.54002    0.68192    0.61751    1.000
    Si3957   Si       0.68592    0.67245    0.50713    1.000
    N3958    N        0.66263    0.66519    0.54380    1.000
    N3959    N        0.71946    0.70056    0.50505    1.000
    N3960    N        0.66924    0.66740    0.61402    1.000
    N3961    N        0.72908    0.66230    0.57585    1.000
    Si3962   Si       0.61970    0.65898    0.54302    1.000
    Si3963   Si       0.53461    0.69132    0.71233    1.000
    N3964    N        0.49506    0.67506    0.71369    1.000
    N3965    N        0.60948    0.67127    0.66013    1.000
    N3966    N        0.55081    0.71958    0.68092    1.000
    N3967    N        0.56780    0.66212    0.71527    1.000
    Si3968   Si       0.63354    0.69272    0.69043    1.000
    N3969    N        0.65015    0.67079    0.72573    1.000
    N3970    N        0.66902    0.70800    0.66934    1.000
    Si3971   Si       0.69077    0.68158    0.73968    1.000
    Si3972   Si       0.69574    0.68637    0.64332    1.000
    Si3973   Si       0.62535    0.65957    0.62033    1.000
    N3974    N        0.60151    0.67237    0.77746    1.000
    Si3975   Si       0.49724    0.67031    0.76215    1.000
    N3976    N        0.53529    0.69527    0.75728    1.000
    Si3977   Si       0.60316    0.68575    0.86767    1.000
    Si3978   Si       0.61191    0.71004    0.79877    1.000
    Si3979   Si       0.56352    0.65956    0.75989    1.000
    N3980    N        0.63373    0.69299    0.83479    1.000
    N3981    N        0.69453    0.69300    0.78099    1.000
    Si3982   Si       0.72237    0.67568    0.80956    1.000
    N3983    N        0.70003    0.66414    0.84374    1.000
    Si3984   Si       0.65885    0.65689    0.82965    1.000
    N3985    N        0.60440    0.66706    0.98186    1.000
    N3986    N        0.57876    0.67725    0.92668    1.000
    Si3987   Si       0.56767    0.68514    0.96716    1.000
    N3988    N        0.51307    0.67309    0.90383    1.000
    Si3989   Si       0.50307    0.71176    0.88734    1.000
    Si3990   Si       0.55339    0.65266    0.90220    1.000
    Si3991   Si       0.62054    0.66797    0.93141    1.000
    N3992    N        0.65985    0.67897    0.95162    1.000
    N3993    N        0.63528    0.69329    0.89724    1.000
    Si3994   Si       0.65884    0.71710    0.93244    1.000
    N3995    N        0.54895    0.74029    0.08877    1.000
    Si3996   Si       0.54481    0.72730    0.01471    1.000
    N3997    N        0.49546    0.76720    0.04842    1.000
    N3998    N        0.55575    0.76981    0.02401    1.000
    Si3999   Si       0.58368    0.71638    0.07440    1.000
    N4000    N        0.61212    0.74857    0.06970    1.000
    N4001    N        0.62032    0.75676    0.00728    1.000
    N4002    N        0.67419    0.75476    0.05310    1.000
    N4003    N        0.72243    0.73878    0.11166    1.000
    Si4004   Si       0.64208    0.73077    0.03783    1.000
    N4005    N        0.72649    0.75988    0.00814    1.000
    Si4006   Si       0.64707    0.76795    0.08721    1.000
    Si4007   Si       0.54974    0.76153    0.12587    1.000
    N4008    N        0.53323    0.74417    0.16182    1.000
    Si4009   Si       0.55122    0.75469    0.19987    1.000
    N4010    N        0.57947    0.72529    0.21716    1.000
    N4011    N        0.59322    0.76822    0.13880    1.000
    N4012    N        0.52152    0.77028    0.22737    1.000
    N4013    N        0.72201    0.76002    0.17806    1.000
    Si4014   Si       0.69732    0.76415    0.13843    1.000
    N4015    N        0.70843    0.74397    0.23969    1.000
    Si4016   Si       0.68838    0.74005    0.20111    1.000
    N4017    N        0.65406    0.76318    0.19170    1.000
    N4018    N        0.65685    0.75461    0.12659    1.000
    Si4019   Si       0.62702    0.74861    0.15852    1.000
    Si4020   Si       0.53937    0.72492    0.32172    1.000
    Si4021   Si       0.59277    0.72657    0.25729    1.000
    N4022    N        0.54554    0.76742    0.32003    1.000
    N4023    N        0.62069    0.76491    0.32767    1.000
    N4024    N        0.72638    0.75263    0.36153    1.000
    N4025    N        0.68151    0.73626    0.30844    1.000
    Si4026   Si       0.63962    0.72898    0.30767    1.000
    Si4027   Si       0.70376    0.76216    0.28164    1.000
    Si4028   Si       0.70836    0.71841    0.33797    1.000
    N4029    N        0.63239    0.71206    0.26661    1.000
    N4030    N        0.50656    0.75233    0.45210    1.000
    Si4031   Si       0.56415    0.73621    0.38977    1.000
    Si4032   Si       0.58315    0.76178    0.47346    1.000
    N4033    N        0.60592    0.74567    0.39205    1.000
    N4034    N        0.55099    0.73831    0.49525    1.000
    N4035    N        0.53400    0.76988    0.38770    1.000
    N4036    N        0.61463    0.73477    0.46486    1.000
    N4037    N        0.66665    0.72237    0.41724    1.000
    Si4038   Si       0.70045    0.74580    0.39957    1.000
    Si4039   Si       0.62121    0.72423    0.42373    1.000
    N4040    N        0.71712    0.77415    0.49387    1.000
    N4041    N        0.58408    0.72368    0.61272    1.000
    N4042    N        0.60466    0.76079    0.55883    1.000
    Si4043   Si       0.50981    0.75633    0.50544    1.000
    N4044    N        0.48991    0.71777    0.51512    1.000
    N4045    N        0.52835    0.77340    0.54503    1.000
    Si4046   Si       0.61608    0.75185    0.60101    1.000
    Si4047   Si       0.64747    0.76150    0.54938    1.000
    N4048    N        0.65820    0.74848    0.59095    1.000
    Si4049   Si       0.70658    0.73929    0.51755    1.000
    N4050    N        0.71606    0.74864    0.55830    1.000
    N4051    N        0.66138    0.73330    0.51702    1.000
    Si4052   Si       0.69963    0.74762    0.59761    1.000
    Si4053   Si       0.48980    0.74760    0.65735    1.000
    N4054    N        0.52484    0.75709    0.63433    1.000
    Si4055   Si       0.57702    0.74793    0.69982    1.000
    N4056    N        0.55582    0.75789    0.73689    1.000
    Si4057   Si       0.54740    0.71849    0.63937    1.000
    N4058    N        0.72261    0.71565    0.62245    1.000
    Si4059   Si       0.68996    0.73871    0.69255    1.000
    Si4060   Si       0.63507    0.75492    0.73769    1.000
    N4061    N        0.61656    0.73182    0.70737    1.000
    N4062    N        0.71404    0.76737    0.66903    1.000
    N4063    N        0.67457    0.76324    0.72389    1.000
    N4064    N        0.71320    0.71254    0.71792    1.000
    Si4065   Si       0.55290    0.73462    0.83823    1.000
    Si4066   Si       0.54396    0.73568    0.77040    1.000
    N4067    N        0.50974    0.75203    0.78909    1.000
    N4068    N        0.57414    0.72969    0.80009    1.000
    N4069    N        0.51218    0.71798    0.84626    1.000
    N4070    N        0.64009    0.73579    0.78088    1.000
    N4071    N        0.69082    0.73075    0.83611    1.000
    Si4072   Si       0.68352    0.73308    0.79393    1.000
    Si4073   Si       0.73442    0.74009    0.84487    1.000
    Si4074   Si       0.66151    0.72063    0.86825    1.000
    N4075    N        0.70022    0.77137    0.78253    1.000
    N4076    N        0.57862    0.72008    0.87041    1.000
    N4077    N        0.55060    0.72495    0.97157    1.000
    Si4078   Si       0.60049    0.74543    0.89954    1.000
    Si4079   Si       0.54299    0.75819    0.94504    1.000
    N4080    N        0.51656    0.74414    0.91124    1.000
    N4081    N        0.63466    0.75687    0.87008    1.000
    N4082    N        0.62045    0.73999    0.93577    1.000
    N4083    N        0.73867    0.72764    0.95454    1.000
    Si4084   Si       0.73206    0.72037    0.91236    1.000
    Si4085   Si       0.63384    0.76438    0.96726    1.000
    N4086    N        0.67157    0.74256    0.96739    1.000
    N4087    N        0.68978    0.72505    0.90244    1.000
    Si4088   Si       0.70654    0.72598    0.98787    1.000
    N4089    N        0.57222    0.80546    0.07400    1.000
    N4090    N        0.51655    0.79038    0.10900    1.000
    N4091    N        0.51721    0.82531    0.03428    1.000
    Si4092   Si       0.59805    0.77831    0.03860    1.000
    Si4093   Si       0.53893    0.80455    0.00206    1.000
    Si4094   Si       0.53525    0.78013    0.06849    1.000
    N4095    N        0.61518    0.81987    0.03039    1.000
    N4096    N        0.68559    0.81875    0.02353    1.000
    N4097    N        0.64806    0.81157    0.08854    1.000
    Si4098   Si       0.70687    0.78227    0.03846    1.000
    Si4099   Si       0.65288    0.82828    0.04977    1.000
    N4100    N        0.73760    0.79235    0.07021    1.000
    N4101    N        0.58041    0.78773    0.19764    1.000
    Si4102   Si       0.59175    0.80618    0.16056    1.000
    Si4103   Si       0.59099    0.80310    0.23593    1.000
    Si4104   Si       0.52004    0.82874    0.13002    1.000
    N4105    N        0.55859    0.82940    0.15015    1.000
    N4106    N        0.62983    0.82410    0.22964    1.000
    N4107    N        0.69426    0.82308    0.20202    1.000
    Si4108   Si       0.65784    0.83243    0.12524    1.000
    N4109    N        0.69606    0.80989    0.13528    1.000
    Si4110   Si       0.65366    0.80714    0.19697    1.000
    N4111    N        0.63300    0.82178    0.15903    1.000
    Si4112   Si       0.71701    0.83298    0.16686    1.000
    Si4113   Si       0.70052    0.82842    0.24551    1.000
    Si4114   Si       0.52464    0.79236    0.35214    1.000
    Si4115   Si       0.58548    0.77872    0.30711    1.000
    N4116    N        0.58794    0.82294    0.31539    1.000
    N4117    N        0.49363    0.81687    0.27128    1.000
    N4118    N        0.59483    0.77112    0.26604    1.000
    N4119    N        0.68479    0.80086    0.27510    1.000
    Si4120   Si       0.62543    0.77718    0.36987    1.000
    N4121    N        0.60454    0.81382    0.38533    1.000
    N4122    N        0.50502    0.81714    0.43726    1.000
    Si4123   Si       0.52974    0.78415    0.42790    1.000
    Si4124   Si       0.59179    0.82235    0.42699    1.000
    N4125    N        0.57032    0.78636    0.44211    1.000
    N4126    N        0.68773    0.83453    0.47604    1.000
    N4127    N        0.66678    0.77729    0.37861    1.000
    Si4128   Si       0.73731    0.78288    0.45679    1.000
    N4129    N        0.72910    0.82052    0.37202    1.000
    N4130    N        0.71146    0.77947    0.42401    1.000
    Si4131   Si       0.69394    0.80820    0.39457    1.000
    N4132    N        0.50531    0.81917    0.60532    1.000
    Si4133   Si       0.49904    0.80118    0.56395    1.000
    N4134    N        0.57398    0.81988    0.55809    1.000
    N4135    N        0.59166    0.79186    0.50266    1.000
    Si4136   Si       0.57111    0.78077    0.54011    1.000
    N4137    N        0.72724    0.77902    0.61129    1.000
    Si4138   Si       0.69632    0.81014    0.51017    1.000
    N4139    N        0.66799    0.79872    0.53986    1.000
    N4140    N        0.56886    0.82088    0.62800    1.000
    Si4141   Si       0.57114    0.79959    0.73039    1.000
    Si4142   Si       0.60022    0.80642    0.65631    1.000
    N4143    N        0.57662    0.78894    0.68666    1.000
    Si4144   Si       0.53385    0.80063    0.63697    1.000
    N4145    N        0.50884    0.82034    0.66670    1.000
    N4146    N        0.53470    0.82350    0.72222    1.000
    Si4147   Si       0.49444    0.80655    0.70863    1.000
    N4148    N        0.61538    0.79191    0.74492    1.000
    N4149    N        0.62062    0.77662    0.63477    1.000
    N4150    N        0.67928    0.82798    0.64077    1.000
    Si4151   Si       0.71401    0.80515    0.64446    1.000
    Si4152   Si       0.71252    0.77785    0.74189    1.000
    N4153    N        0.71732    0.82071    0.73242    1.000
    Si4154   Si       0.56043    0.81134    0.82227    1.000
    N4155    N        0.51103    0.81990    0.80805    1.000
    N4156    N        0.60480    0.79919    0.82041    1.000
    N4157    N        0.56493    0.81969    0.77756    1.000
    Si4158   Si       0.61128    0.81625    0.78072    1.000
    N4159    N        0.54629    0.77622    0.84716    1.000
    Si4160   Si       0.52125    0.83166    0.76559    1.000
    N4161    N        0.73568    0.78322    0.83876    1.000
    Si4162   Si       0.63272    0.79662    0.85276    1.000
    N4163    N        0.66867    0.81337    0.83532    1.000
    Si4164   Si       0.70397    0.80102    0.81386    1.000
    Si4165   Si       0.59755    0.81324    0.92023    1.000
    N4166    N        0.50291    0.80955    0.88352    1.000
    N4167    N        0.51692    0.78548    0.96973    1.000
    Si4168   Si       0.53287    0.77911    0.88701    1.000
    N4169    N        0.57017    0.77686    0.91287    1.000
    N4170    N        0.74227    0.80819    0.90404    1.000
    N4171    N        0.62195    0.82373    0.88576    1.000
    N4172    N        0.62010    0.80366    0.95658    1.000
    Si4173   Si       0.52725    0.86817    0.03019    1.000
    N4174    N        0.56673    0.87299    0.04291    1.000
    N4175    N        0.60178    0.86269    0.10132    1.000
    Si4176   Si       0.58956    0.84375    0.06352    1.000
    N4177    N        0.53203    0.86392    0.10808    1.000
    N4178    N        0.66848    0.87367    0.11235    1.000
    N4179    N        0.64623    0.87321    0.05100    1.000
    Si4180   Si       0.70820    0.85261    0.00235    1.000
    Si4181   Si       0.63588    0.89012    0.09048    1.000
    Si4182   Si       0.57038    0.86643    0.13060    1.000
    N4183    N        0.49879    0.87246    0.22964    1.000
    Si4184   Si       0.63918    0.86500    0.24362    1.000
    N4185    N        0.71572    0.87604    0.15603    1.000
    N4186    N        0.62168    0.89031    0.21480    1.000
    Si4187   Si       0.58113    0.85314    0.28609    1.000
    Si4188   Si       0.51296    0.86603    0.35700    1.000
    N4189    N        0.53990    0.87272    0.29008    1.000
    Si4190   Si       0.52110    0.84765    0.25883    1.000
    Si4191   Si       0.58168    0.83779    0.35743    1.000
    N4192    N        0.59620    0.87648    0.36102    1.000
    N4193    N        0.56303    0.83355    0.24968    1.000
    N4194    N        0.53978    0.83286    0.35975    1.000
    N4195    N        0.61684    0.87600    0.28211    1.000
    N4196    N        0.68177    0.86706    0.25481    1.000
    Si4197   Si       0.51974    0.85668    0.42984    1.000
    N4198    N        0.50089    0.87813    0.39624    1.000
    N4199    N        0.56215    0.85435    0.43252    1.000
    Si4200   Si       0.56212    0.88174    0.46724    1.000
    N4201    N        0.51770    0.88097    0.46652    1.000
    Si4202   Si       0.72963    0.85203    0.47641    1.000
    Si4203   Si       0.66990    0.88151    0.38376    1.000
    N4204    N        0.62098    0.83293    0.45831    1.000
    N4205    N        0.67509    0.84638    0.40988    1.000
    Si4206   Si       0.65831    0.85176    0.45018    1.000
    N4207    N        0.55377    0.87270    0.58286    1.000
    Si4208   Si       0.51943    0.86120    0.60896    1.000
    Si4209   Si       0.54662    0.85057    0.54112    1.000
    Si4210   Si       0.58491    0.84034    0.59325    1.000
    N4211    N        0.56832    0.86014    0.50474    1.000
    N4212    N        0.50432    0.83661    0.54066    1.000
    Si4213   Si       0.60433    0.83355    0.49860    1.000
    N4214    N        0.48812    0.88539    0.59263    1.000
    N4215    N        0.62755    0.84640    0.59177    1.000
    N4216    N        0.63460    0.85673    0.51900    1.000
    N4217    N        0.68488    0.85833    0.57103    1.000
    Si4218   Si       0.66600    0.85562    0.60967    1.000
    N4219    N        0.72981    0.83764    0.51799    1.000
    Si4220   Si       0.64849    0.83576    0.55376    1.000
    Si4221   Si       0.71172    0.89085    0.56032    1.000
    N4222    N        0.56471    0.87842    0.70227    1.000
    Si4223   Si       0.60259    0.88317    0.68069    1.000
    N4224    N        0.52904    0.87993    0.64774    1.000
    Si4225   Si       0.52824    0.85691    0.68688    1.000
    N4226    N        0.49481    0.87773    0.70612    1.000
    Si4227   Si       0.66133    0.85857    0.66915    1.000
    Si4228   Si       0.72741    0.84960    0.70120    1.000
    N4229    N        0.61989    0.84336    0.66910    1.000
    N4230    N        0.69394    0.87641    0.69409    1.000
    N4231    N        0.63229    0.89372    0.70991    1.000
    N4232    N        0.52257    0.87443    0.76509    1.000
    N4233    N        0.55342    0.84382    0.85163    1.000
    Si4234   Si       0.50945    0.83349    0.84817    1.000
    Si4235   Si       0.55527    0.89207    0.74172    1.000
    N4236    N        0.63837    0.84876    0.77900    1.000
    N4237    N        0.65835    0.87829    0.84600    1.000
    Si4238   Si       0.66749    0.85232    0.81069    1.000
    N4239    N        0.70776    0.84294    0.79617    1.000
    Si4240   Si       0.62966    0.88446    0.75312    1.000
    Si4241   Si       0.73831    0.84378    0.76377    1.000
    Si4242   Si       0.56284    0.86963    0.88544    1.000
    N4243    N        0.57049    0.84658    0.92391    1.000
    Si4244   Si       0.55313    0.86583    0.96142    1.000
    N4245    N        0.52062    0.88010    0.98832    1.000
    N4246    N        0.60080    0.88935    0.87580    1.000
    Si4247   Si       0.60840    0.83207    0.98707    1.000
    N4248    N        0.56545    0.83125    0.98477    1.000
    N4249    N        0.71291    0.84767    0.95978    1.000
    Si4250   Si       0.68309    0.87986    0.94896    1.000
    N4251    N        0.64705    0.87518    0.92296    1.000
    N4252    N        0.62310    0.87080    0.98323    1.000
    Si4253   Si       0.63747    0.86473    0.88131    1.000
    N4254    N        0.68451    0.89151    0.99499    1.000
    N4255    N        0.54324    0.92841    0.10019    1.000
    Si4256   Si       0.51111    0.89992    0.09640    1.000
    Si4257   Si       0.58116    0.93201    0.12101    1.000
    N4258    N        0.49900    0.89395    0.05417    1.000
    N4259    N        0.61453    0.92770    0.09065    1.000
    N4260    N        0.62900    0.93270    0.01927    1.000
    N4261    N        0.71102    0.93156    0.04115    1.000
    N4262    N        0.70908    0.93860    0.11252    1.000
    Si4263   Si       0.64591    0.89321    0.01409    1.000
    Si4264   Si       0.71235    0.92524    0.99945    1.000
    Si4265   Si       0.73632    0.93679    0.07590    1.000
    Si4266   Si       0.70859    0.89395    0.11540    1.000
    N4267    N        0.56482    0.93589    0.21722    1.000
    Si4268   Si       0.59800    0.91920    0.19263    1.000
    N4269    N        0.58102    0.90221    0.15490    1.000
    N4270    N        0.68839    0.92090    0.21243    1.000
    Si4271   Si       0.72101    0.90117    0.19094    1.000
    Si4272   Si       0.52956    0.91313    0.30377    1.000
    N4273    N        0.52591    0.90804    0.34859    1.000
    N4274    N        0.55364    0.94617    0.28871    1.000
    Si4275   Si       0.61212    0.91634    0.36851    1.000
    N4276    N        0.61230    0.93187    0.32910    1.000
    N4277    N        0.66040    0.92747    0.27599    1.000
    Si4278   Si       0.71076    0.90919    0.34411    1.000
    N4279    N        0.72829    0.92676    0.27117    1.000
    Si4280   Si       0.63938    0.90435    0.30802    1.000
    Si4281   Si       0.69306    0.90817    0.25482    1.000
    N4282    N        0.72778    0.94727    0.33889    1.000
    N4283    N        0.66980    0.89541    0.33969    1.000
    N4284    N        0.57609    0.92175    0.45553    1.000
    Si4285   Si       0.50341    0.91884    0.38523    1.000
    N4286    N        0.58467    0.94319    0.38600    1.000
    Si4287   Si       0.60290    0.94356    0.48163    1.000
    Si4288   Si       0.56134    0.94756    0.42405    1.000
    N4289    N        0.50717    0.94488    0.48364    1.000
    N4290    N        0.51826    0.94560    0.41827    1.000
    N4291    N        0.69682    0.94332    0.44441    1.000
    Si4292   Si       0.71405    0.92887    0.48447    1.000
    Si4293   Si       0.65598    0.92860    0.43687    1.000
    N4294    N        0.64352    0.90975    0.40089    1.000
    Si4295   Si       0.72683    0.91748    0.42318    1.000
    N4296    N        0.71342    0.89436    0.38673    1.000
    N4297    N        0.72814    0.89252    0.46034    1.000
    N4298    N        0.65495    0.89393    0.46473    1.000
    N4299    N        0.53599    0.92457    0.54504    1.000
    Si4300   Si       0.56203    0.91590    0.58005    1.000
    N4301    N        0.60324    0.92730    0.58361    1.000
    N4302    N        0.54345    0.93721    0.61062    1.000
    Si4303   Si       0.49584    0.91494    0.56081    1.000
    N4304    N        0.62298    0.92473    0.51545    1.000
    N4305    N        0.70683    0.91988    0.59103    1.000
    N4306    N        0.69668    0.90445    0.52002    1.000
    Si4307   Si       0.65465    0.89530    0.50860    1.000
    Si4308   Si       0.73785    0.94429    0.60940    1.000
    Si4309   Si       0.60901    0.94532    0.62574    1.000
    N4310    N        0.59339    0.91222    0.64964    1.000
    Si4311   Si       0.55047    0.91841    0.64917    1.000
    N4312    N        0.52835    0.93693    0.68067    1.000
    N4313    N        0.68413    0.94797    0.70335    1.000
    Si4314   Si       0.68106    0.92530    0.62497    1.000
    Si4315   Si       0.67235    0.90755    0.71613    1.000
    N4316    N        0.66103    0.88907    0.63756    1.000
    Si4317   Si       0.59943    0.92712    0.85406    1.000
    N4318    N        0.56634    0.92967    0.82510    1.000
    Si4319   Si       0.57600    0.93534    0.78189    1.000
    N4320    N        0.59118    0.89740    0.76647    1.000
    N4321    N        0.54534    0.93675    0.74884    1.000
    N4322    N        0.49525    0.93295    0.84722    1.000
    Si4323   Si       0.69361    0.93808    0.77696    1.000
    N4324    N        0.70027    0.93578    0.81899    1.000
    N4325    N        0.66823    0.90709    0.75982    1.000
    Si4326   Si       0.66666    0.92065    0.84303    1.000
    N4327    N        0.63117    0.94065    0.82595    1.000
    N4328    N        0.73341    0.93483    0.76147    1.000
    Si4329   Si       0.49289    0.90257    0.87890    1.000
    N4330    N        0.57399    0.90371    0.95251    1.000
    Si4331   Si       0.54364    0.92724    0.93184    1.000
    N4332    N        0.50538    0.93641    0.95247    1.000
    N4333    N        0.53183    0.89871    0.90005    1.000
    N4334    N        0.63157    0.93631    0.94791    1.000
    N4335    N        0.70877    0.90815    0.93069    1.000
    Si4336   Si       0.70890    0.94043    0.90025    1.000
    Si4337   Si       0.61636    0.89556    0.94655    1.000
    N4338    N        0.66886    0.93907    0.88160    1.000
    Si4339   Si       0.56005    0.98587    0.01261    1.000
    Si4340   Si       0.53522    0.96028    0.07396    1.000
    N4341    N        0.56927    0.96079    0.04800    1.000
    N4342    N        0.53225    0.00098    0.08816    1.000
    N4343    N        0.48995    0.96209    0.06866    1.000
    Si4344   Si       0.61373    0.95468    0.05670    1.000
    N4345    N        0.51861    0.98402    0.00061    1.000
    N4346    N        0.63288    0.99151    0.06199    1.000
    Si4347   Si       0.55870    0.00438    0.12187    1.000
    N4348    N        0.58114    0.97154    0.13574    1.000
    Si4349   Si       0.61181    0.98717    0.16240    1.000
    Si4350   Si       0.54653    0.96067    0.24586    1.000
    N4351    N        0.62691    0.95056    0.18190    1.000
    N4352    N        0.66164    0.98455    0.23044    1.000
    N4353    N        0.63896    0.00271    0.13284    1.000
    Si4354   Si       0.72336    0.96078    0.14616    1.000
    Si4355   Si       0.66711    0.95539    0.19862    1.000
    N4356    N        0.69081    0.97593    0.16857    1.000
    N4357    N        0.57544    0.99611    0.34249    1.000
    Si4358   Si       0.58674    0.96472    0.31287    1.000
    N4359    N        0.50226    0.97573    0.24796    1.000
    N4360    N        0.55771    0.00279    0.24613    1.000
    N4361    N        0.61554    0.98365    0.28463    1.000
    Si4362   Si       0.65456    0.96930    0.26997    1.000
    N4363    N        0.68752    0.98517    0.29329    1.000
    Si4364   Si       0.72557    0.96111    0.29694    1.000
    Si4365   Si       0.58886    0.98613    0.38259    1.000
    N4366    N        0.57272    0.99060    0.42276    1.000
    Si4367   Si       0.50382    0.97103    0.44925    1.000
    N4368    N        0.63058    0.95942    0.45160    1.000
    Si4369   Si       0.74138    0.97357    0.37134    1.000
    N4370    N        0.62932    0.00175    0.38912    1.000
    N4371    N        0.70601    0.99328    0.38659    1.000
    Si4372   Si       0.70663    0.98632    0.42925    1.000
    Si4373   Si       0.62921    0.99888    0.43440    1.000
    N4374    N        0.52269    0.99555    0.53312    1.000
    Si4375   Si       0.55518    0.98093    0.60396    1.000
    N4376    N        0.58292    0.98471    0.56755    1.000
    N4377    N        0.57653    0.96905    0.50678    1.000
    Si4378   Si       0.53535    0.95635    0.51694    1.000
    N4379    N        0.51831    0.00266    0.60016    1.000
    Si4380   Si       0.49411    0.98942    0.56579    1.000
    Si4381   Si       0.61120    0.95349    0.54802    1.000
    Si4382   Si       0.57204    0.00761    0.53087    1.000
    N4383    N        0.70876    0.98688    0.58438    1.000
    N4384    N        0.64941    0.97349    0.55388    1.000
    Si4385   Si       0.69118    0.98377    0.54589    1.000
    N4386    N        0.70575    0.96891    0.50895    1.000
    Si4387   Si       0.68479    0.98969    0.62151    1.000
    N4388    N        0.50957    0.98496    0.73453    1.000
    N4389    N        0.57441    0.98565    0.70540    1.000
    N4390    N        0.58682    0.97996    0.63400    1.000
    Si4391   Si       0.54101    0.96085    0.71198    1.000
    Si4392   Si       0.58054    0.00667    0.66744    1.000
    N4393    N        0.71085    0.95572    0.64204    1.000
    Si4394   Si       0.72124    0.96038    0.68381    1.000
    Si4395   Si       0.68527    0.98745    0.72457    1.000
    N4396    N        0.65068    0.95569    0.62560    1.000
    N4397    N        0.72665    0.99398    0.71181    1.000
    N4398    N        0.52806    0.97731    0.80307    1.000
    N4399    N        0.60165    0.96901    0.77179    1.000
    Si4400   Si       0.53148    0.95292    0.83953    1.000
    Si4401   Si       0.51110    0.95687    0.76788    1.000
    N4402    N        0.59314    0.00802    0.82691    1.000
    N4403    N        0.53429    0.98572    0.86707    1.000
    Si4404   Si       0.58885    0.99905    0.74375    1.000
    Si4405   Si       0.73472    0.95643    0.83640    1.000
    Si4406   Si       0.62431    0.98084    0.80741    1.000
    N4407    N        0.71987    0.99774    0.83497    1.000
    N4408    N        0.68263    0.97767    0.76635    1.000
    Si4409   Si       0.49806    0.00452    0.88423    1.000
    Si4410   Si       0.51537    0.97973    0.95535    1.000
    N4411    N        0.55103    0.97026    0.93031    1.000
    N4412    N        0.59322    0.98513    0.98364    1.000
    Si4413   Si       0.56824    0.98386    0.89332    1.000
    N4414    N        0.60124    0.95665    0.88479    1.000
    Si4415   Si       0.70008    0.00301    0.99658    1.000
    N4416    N        0.65527    0.99373    0.91511    1.000
    N4417    N        0.72423    0.96551    0.98603    1.000
    Si4418   Si       0.62721    0.95821    0.98497    1.000
    N4419    N        0.65950    0.98724    0.99427    1.000
    Si4420   Si       0.63747    0.95444    0.90779    1.000
    N4421    N        0.72083    0.97899    0.91850    1.000
    N4422    N        0.77734    0.04624    0.11179    1.000
    N4423    N        0.79862    0.01962    0.05254    1.000
    N4424    N        0.74449    0.02535    0.01340    1.000
    Si4425   Si       0.80450    0.06288    0.04023    1.000
    N4426    N        0.83889    0.01297    0.99999    1.000
    N4427    N        0.86387    0.01628    0.06852    1.000
    Si4428   Si       0.90162    0.03995    0.06351    1.000
    N4429    N        0.97283    0.03198    0.02820    1.000
    N4430    N        0.90410    0.04335    0.01878    1.000
    Si4431   Si       0.94167    0.05126    0.00178    1.000
    N4432    N        0.93253    0.01477    0.08266    1.000
    N4433    N        0.74199    0.04527    0.17583    1.000
    Si4434   Si       0.77741    0.04740    0.20086    1.000
    N4435    N        0.76754    0.05005    0.24238    1.000
    Si4436   Si       0.74586    0.02995    0.13619    1.000
    N4437    N        0.79965    0.01562    0.18130    1.000
    N4438    N        0.98128    0.02034    0.13309    1.000
    N4439    N        0.86336    0.03821    0.13167    1.000
    N4440    N        0.86871    0.06583    0.18827    1.000
    N4441    N        0.93212    0.04511    0.20382    1.000
    Si4442   Si       0.93950    0.04359    0.24544    1.000
    N4443    N        0.92980    0.06453    0.14049    1.000
    Si4444   Si       0.89550    0.03073    0.18104    1.000
    Si4445   Si       0.93985    0.02390    0.12458    1.000
    Si4446   Si       0.75900    0.01939    0.31448    1.000
    N4447    N        0.78649    0.04956    0.30468    1.000
    Si4448   Si       0.80397    0.04278    0.26489    1.000
    Si4449   Si       0.89831    0.03900    0.30478    1.000
    N4450    N        0.94289    0.04868    0.30194    1.000
    Si4451   Si       0.97999    0.02592    0.29583    1.000
    N4452    N        0.89929    0.02622    0.26251    1.000
    N4453    N        0.97871    0.02113    0.25029    1.000
    N4454    N        0.83715    0.04376    0.37912    1.000
    Si4455   Si       0.79402    0.03080    0.38174    1.000
    N4456    N        0.84321    0.03497    0.45466    1.000
    N4457    N        0.77895    0.04952    0.48085    1.000
    Si4458   Si       0.75968    0.04352    0.44342    1.000
    Si4459   Si       0.81969    0.03521    0.49001    1.000
    N4460    N        0.77226    0.06157    0.40413    1.000
    Si4461   Si       0.84566    0.01439    0.41348    1.000
    N4462    N        0.95799    0.04775    0.37457    1.000
    N4463    N        0.95262    0.05534    0.43510    1.000
    Si4464   Si       0.94734    0.05143    0.47752    1.000
    N4465    N        0.89367    0.02608    0.42102    1.000
    Si4466   Si       0.92446    0.05121    0.40303    1.000
    N4467    N        0.90449    0.04814    0.48788    1.000
    Si4468   Si       0.87958    0.05426    0.45314    1.000
    Si4469   Si       0.99106    0.04677    0.41396    1.000
    N4470    N        0.82496    0.03758    0.59756    1.000
    N4471    N        0.75372    0.03829    0.59571    1.000
    Si4472   Si       0.75558    0.05530    0.51840    1.000
    N4473    N        0.84642    0.06394    0.51340    1.000
    Si4474   Si       0.78953    0.06223    0.58535    1.000
    N4475    N        0.74988    0.01226    0.52985    1.000
    N4476    N        0.96921    0.05025    0.55651    1.000
    Si4477   Si       0.88683    0.05033    0.52692    1.000
    Si4478   Si       0.96701    0.04586    0.59982    1.000
    N4479    N        0.88712    0.01570    0.55403    1.000
    Si4480   Si       0.98329    0.01299    0.53697    1.000
    N4481    N        0.88172    0.06710    0.61655    1.000
    N4482    N        0.96310    0.01748    0.49884    1.000
    N4483    N        0.76889    0.05352    0.71730    1.000
    Si4484   Si       0.84440    0.05491    0.63668    1.000
    N4485    N        0.84062    0.02282    0.66675    1.000
    Si4486   Si       0.75173    0.01908    0.73826    1.000
    N4487    N        0.89283    0.02369    0.72351    1.000
    Si4488   Si       0.91979    0.05800    0.63602    1.000
    Si4489   Si       0.92846    0.03892    0.70524    1.000
    N4490    N        0.95822    0.06078    0.72989    1.000
    N4491    N        0.94624    0.02132    0.62882    1.000
    N4492    N        0.91532    0.06959    0.67620    1.000
    N4493    N        0.85719    0.06151    0.84852    1.000
    N4494    N        0.83157    0.04393    0.75580    1.000
    Si4495   Si       0.81553    0.04355    0.85964    1.000
    N4496    N        0.82047    0.01211    0.82094    1.000
    Si4497   Si       0.88623    0.03441    0.82807    1.000
    N4498    N        0.89371    0.04958    0.78708    1.000
    Si4499   Si       0.95599    0.03757    0.85553    1.000
    N4500    N        0.92120    0.05964    0.84116    1.000
    Si4501   Si       0.87242    0.05377    0.74887    1.000
    N4502    N        0.99103    0.05524    0.83490    1.000
    N4503    N        0.77362    0.02821    0.87578    1.000
    Si4504   Si       0.76399    0.04541    0.97727    1.000
    Si4505   Si       0.78606    0.03360    0.91710    1.000
    N4506    N        0.82798    0.04146    0.90462    1.000
    Si4507   Si       0.86128    0.05408    0.92961    1.000
    N4508    N        0.76449    0.06647    0.93795    1.000
    N4509    N        0.88260    0.01977    0.94276    1.000
    N4510    N        0.95659    0.04619    0.89749    1.000
    Si4511   Si       0.92168    0.03134    0.92502    1.000
    Si4512   Si       0.98048    0.04185    0.93232    1.000
    N4513    N        0.94626    0.04450    0.95976    1.000
    Si4514   Si       0.86477    0.05006    0.00159    1.000
    N4515    N        0.79116    0.09715    0.06698    1.000
    Si4516   Si       0.78684    0.08747    0.10837    1.000
    N4517    N        0.84828    0.07373    0.03592    1.000
    N4518    N        0.79217    0.07090    0.99851    1.000
    Si4519   Si       0.87415    0.10379    0.05570    1.000
    N4520    N        0.90157    0.08020    0.07919    1.000
    Si4521   Si       0.91741    0.09787    0.11583    1.000
    N4522    N        0.94818    0.09373    0.00140    1.000
    Si4523   Si       0.97912    0.12182    0.09272    1.000
    N4524    N        0.75773    0.11068    0.13227    1.000
    Si4525   Si       0.79149    0.11700    0.16330    1.000
    N4526    N        0.82133    0.09969    0.13298    1.000
    Si4527   Si       0.83823    0.08601    0.21309    1.000
    N4528    N        0.79991    0.08451    0.19178    1.000
    Si4529   Si       0.85923    0.07828    0.14621    1.000
    N4530    N        0.88282    0.11343    0.13762    1.000
    Si4531   Si       0.94962    0.07556    0.17673    1.000
    Si4532   Si       0.95591    0.12201    0.22847    1.000
    N4533    N        0.94014    0.11570    0.18806    1.000
    Si4534   Si       0.84747    0.09546    0.28794    1.000
    Si4535   Si       0.76828    0.09041    0.30815    1.000
    N4536    N        0.80933    0.10991    0.30500    1.000
    N4537    N        0.83598    0.07033    0.25281    1.000
    Si4538   Si       0.86306    0.07470    0.36064    1.000
    N4539    N        0.74251    0.09934    0.34530    1.000
    Si4540   Si       0.97594    0.08577    0.36035    1.000
    Si4541   Si       0.95128    0.09061    0.29418    1.000
    N4542    N        0.94948    0.08757    0.25133    1.000
    N4543    N        0.87202    0.07147    0.31750    1.000
    N4544    N        0.98588    0.09281    0.32024    1.000
    N4545    N        0.85034    0.11601    0.37442    1.000
    Si4546   Si       0.77624    0.10627    0.40327    1.000
    N4547    N        0.80190    0.11631    0.43874    1.000
    Si4548   Si       0.83839    0.12158    0.46125    1.000
    N4549    N        0.86907    0.09704    0.44432    1.000
    Si4550   Si       0.88122    0.11254    0.40504    1.000
    N4551    N        0.90023    0.08083    0.38290    1.000
    Si4552   Si       0.82375    0.09686    0.53198    1.000
    N4553    N        0.78237    0.10288    0.60553    1.000
    N4554    N        0.84081    0.10900    0.56984    1.000
    N4555    N        0.78756    0.07283    0.54255    1.000
    Si4556   Si       0.74261    0.11146    0.62135    1.000
    Si4557   Si       0.88152    0.09719    0.58322    1.000
    N4558    N        0.90669    0.08324    0.54815    1.000
    Si4559   Si       0.94819    0.08704    0.53694    1.000
    N4560    N        0.94759    0.08155    0.61222    1.000
    Si4561   Si       0.96987    0.11659    0.59960    1.000
    N4562    N        0.95962    0.12619    0.55742    1.000
    N4563    N        0.96395    0.08792    0.49475    1.000
    Si4564   Si       0.74529    0.08353    0.69468    1.000
    N4565    N        0.81458    0.10821    0.72939    1.000
    N4566    N        0.82787    0.08910    0.65342    1.000
    Si4567   Si       0.79828    0.07110    0.74695    1.000
    N4568    N        0.74463    0.12721    0.70241    1.000
    Si4569   Si       0.85256    0.12965    0.72830    1.000
    N4570    N        0.94332    0.12488    0.70452    1.000
    Si4571   Si       0.90545    0.10467    0.69836    1.000
    N4572    N        0.88330    0.09586    0.73470    1.000
    Si4573   Si       0.95889    0.10352    0.74014    1.000
    N4574    N        0.77100    0.08385    0.77765    1.000
    N4575    N        0.80036    0.08503    0.84976    1.000
    Si4576   Si       0.75843    0.09756    0.85200    1.000
    Si4577   Si       0.84005    0.10624    0.84010    1.000
    Si4578   Si       0.78106    0.12376    0.79199    1.000
    Si4579   Si       0.91355    0.08582    0.80303    1.000
    N4580    N        0.94080    0.10841    0.77817    1.000
    N4581    N        0.88519    0.11167    0.82367    1.000
    Si4582   Si       0.89137    0.08848    0.86514    1.000
    Si4583   Si       0.81807    0.09949    0.97991    1.000
    N4584    N        0.75100    0.11805    0.88977    1.000
    N4585    N        0.85155    0.07426    0.96629    1.000
    Si4586   Si       0.74647    0.10382    0.93083    1.000
    N4587    N        0.85694    0.11817    0.87850    1.000
    Si4588   Si       0.97415    0.10295    0.96783    1.000
    N4589    N        0.95197    0.12265    0.93737    1.000
    Si4590   Si       0.91723    0.10584    0.91723    1.000
    N4591    N        0.92495    0.11841    0.87707    1.000
    N4592    N        0.89432    0.06994    0.90747    1.000
    N4593    N        0.78550    0.17126    0.06264    1.000
    N4594    N        0.82062    0.13355    0.00822    1.000
    Si4595   Si       0.81107    0.13503    0.05149    1.000
    Si4596   Si       0.83563    0.17581    0.00239    1.000
    Si4597   Si       0.74577    0.17867    0.04869    1.000
    N4598    N        0.84881    0.13303    0.07714    1.000
    Si4599   Si       0.88104    0.17166    0.06774    1.000
    N4600    N        0.90105    0.13670    0.04510    1.000
    Si4601   Si       0.93863    0.13063    0.02546    1.000
    N4602    N        0.97503    0.12494    0.04972    1.000
    N4603    N        0.87518    0.17671    0.11266    1.000
    N4604    N        0.94657    0.12895    0.11979    1.000
    N4605    N        0.93648    0.16418    0.99708    1.000
    Si4606   Si       0.84877    0.13655    0.12037    1.000
    Si4607   Si       0.78269    0.18303    0.16193    1.000
    Si4608   Si       0.77799    0.16901    0.22585    1.000
    N4609    N        0.81690    0.16503    0.13920    1.000
    N4610    N        0.77111    0.14600    0.18734    1.000
    Si4611   Si       0.84836    0.15177    0.23990    1.000
    N4612    N        0.84524    0.12774    0.20664    1.000
    N4613    N        0.93233    0.15494    0.24665    1.000
    N4614    N        0.98308    0.16768    0.16644    1.000
    Si4615   Si       0.91509    0.18182    0.21531    1.000
    N4616    N        0.91781    0.17764    0.17303    1.000
    Si4617   Si       0.94590    0.14715    0.16006    1.000
    Si4618   Si       0.80361    0.15230    0.29733    1.000
    N4619    N        0.76255    0.15854    0.30950    1.000
    N4620    N        0.83164    0.16858    0.32685    1.000
    Si4621   Si       0.75240    0.14230    0.35004    1.000
    N4622    N        0.80837    0.16001    0.25556    1.000
    Si4623   Si       0.82727    0.15075    0.36698    1.000
    Si4624   Si       0.90604    0.15051    0.28363    1.000
    Si4625   Si       0.97137    0.14278    0.32455    1.000
    N4626    N        0.86809    0.13026    0.27339    1.000
    N4627    N        0.93332    0.12758    0.30677    1.000
    N4628    N        0.96463    0.12691    0.36871    1.000
    N4629    N        0.78760    0.13699    0.37365    1.000
    Si4630   Si       0.76795    0.13975    0.45288    1.000
    N4631    N        0.83391    0.18071    0.39936    1.000
    N4632    N        0.86040    0.16243    0.45872    1.000
    N4633    N        0.77702    0.18126    0.44370    1.000
    N4634    N        0.75352    0.13823    0.49410    1.000
    Si4635   Si       0.88059    0.17859    0.49309    1.000
    Si4636   Si       0.94893    0.14834    0.40183    1.000
    N4637    N        0.97376    0.14115    0.44196    1.000
    N4638    N        0.90561    0.14886    0.40915    1.000
    Si4639   Si       0.87431    0.17950    0.41924    1.000
    N4640    N        0.79249    0.15648    0.56080    1.000
    Si4641   Si       0.78853    0.15329    0.51672    1.000
    Si4642   Si       0.81085    0.13337    0.59318    1.000
    N4643    N        0.82083    0.12884    0.50187    1.000
    N4644    N        0.91154    0.16216    0.51899    1.000
    Si4645   Si       0.92356    0.14860    0.55896    1.000
    N4646    N        0.90148    0.13429    0.59445    1.000
    Si4647   Si       0.92358    0.16646    0.61765    1.000
    Si4648   Si       0.99288    0.15241    0.54012    1.000
    N4649    N        0.82804    0.15575    0.62742    1.000
    N4650    N        0.79695    0.15392    0.68342    1.000
    Si4651   Si       0.75233    0.16361    0.66891    1.000
    Si4652   Si       0.78360    0.13781    0.72118    1.000
    Si4653   Si       0.83172    0.13056    0.66470    1.000
    N4654    N        0.90546    0.18238    0.71484    1.000
    N4655    N        0.95780    0.14434    0.63450    1.000
    N4656    N        0.87062    0.13141    0.68705    1.000
    Si4657   Si       0.88770    0.17123    0.67822    1.000
    Si4658   Si       0.97274    0.14438    0.67728    1.000
    N4659    N        0.77449    0.15236    0.76049    1.000
    Si4660   Si       0.83459    0.16983    0.79152    1.000
    N4661    N        0.82029    0.13209    0.80846    1.000
    N4662    N        0.75202    0.12984    0.82349    1.000
    N4663    N        0.84703    0.16728    0.74841    1.000
    Si4664   Si       0.96838    0.14519    0.78664    1.000
    Si4665   Si       0.89883    0.15184    0.83474    1.000
    N4666    N        0.94539    0.15136    0.82546    1.000
    Si4667   Si       0.95995    0.14053    0.86405    1.000
    N4668    N        0.95579    0.18179    0.76455    1.000
    N4669    N        0.87113    0.17843    0.81293    1.000
    N4670    N        0.90054    0.18626    0.86661    1.000
    Si4671   Si       0.85436    0.13543    0.91865    1.000
    Si4672   Si       0.78940    0.15784    0.94886    1.000
    N4673    N        0.78091    0.17830    0.91196    1.000
    N4674    N        0.75785    0.13096    0.96405    1.000
    Si4675   Si       0.74300    0.16155    0.89558    1.000
    N4676    N        0.84661    0.18099    0.92003    1.000
    N4677    N        0.81581    0.12291    0.94031    1.000
    Si4678   Si       0.92681    0.15575    0.95644    1.000
    N4679    N        0.89160    0.13199    0.94052    1.000
    N4680    N        0.96798    0.17682    0.88889    1.000
    N4681    N        0.87425    0.18771    0.98743    1.000
    N4682    N        0.82504    0.22809    0.09452    1.000
    Si4683   Si       0.80889    0.20773    0.05920    1.000
    N4684    N        0.79242    0.23438    0.02914    1.000
    N4685    N        0.74186    0.19548    0.00663    1.000
    N4686    N        0.84475    0.18935    0.04206    1.000
    Si4687   Si       0.91014    0.19626    0.01220    1.000
    N4688    N        0.90922    0.20346    0.05557    1.000
    Si4689   Si       0.91696    0.23953    0.07811    1.000
    N4690    N        0.92358    0.23531    0.99955    1.000
    N4691    N        0.98872    0.21861    0.02561    1.000
    Si4692   Si       0.78643    0.24457    0.21750    1.000
    Si4693   Si       0.83850    0.20012    0.12524    1.000
    N4694    N        0.76335    0.21403    0.13898    1.000
    N4695    N        0.78678    0.20364    0.20155    1.000
    Si4696   Si       0.85664    0.22395    0.23971    1.000
    N4697    N        0.86125    0.22288    0.15313    1.000
    N4698    N        0.92583    0.22966    0.11993    1.000
    Si4699   Si       0.97798    0.20366    0.19033    1.000
    N4700    N        0.94472    0.21453    0.21874    1.000
    N4701    N        0.98739    0.23642    0.16222    1.000
    Si4702   Si       0.89891    0.20224    0.14101    1.000
    N4703    N        0.87183    0.18640    0.22907    1.000
    N4704    N        0.83940    0.22345    0.27909    1.000
    Si4705   Si       0.85801    0.20203    0.31404    1.000
    N4706    N        0.86081    0.23065    0.34458    1.000
    Si4707   Si       0.93372    0.21199    0.31313    1.000
    N4708    N        0.93070    0.22730    0.35501    1.000
    Si4709   Si       0.96946    0.21386    0.36594    1.000
    N4710    N        0.97195    0.18925    0.32796    1.000
    N4711    N        0.94231    0.24155    0.28388    1.000
    N4712    N        0.89769    0.18961    0.30182    1.000
    Si4713   Si       0.78010    0.21383    0.47166    1.000
    N4714    N        0.81082    0.23293    0.44563    1.000
    N4715    N        0.77544    0.21570    0.37828    1.000
    Si4716   Si       0.80083    0.20414    0.41413    1.000
    N4717    N        0.74525    0.23937    0.46989    1.000
    Si4718   Si       0.90670    0.23777    0.44401    1.000
    Si4719   Si       0.89474    0.24071    0.37438    1.000
    N4720    N        0.91345    0.20284    0.47224    1.000
    N4721    N        0.88809    0.21812    0.41108    1.000
    N4722    N        0.96998    0.18699    0.39997    1.000
    N4723    N        0.81167    0.22822    0.56748    1.000
    Si4724   Si       0.77784    0.19829    0.55781    1.000
    N4725    N        0.79008    0.19801    0.51262    1.000
    N4726    N        0.86140    0.20822    0.51918    1.000
    Si4727   Si       0.82378    0.22725    0.52553    1.000
    Si4728   Si       0.94050    0.22484    0.56908    1.000
    N4729    N        0.92669    0.23127    0.52941    1.000
    N4730    N        0.98460    0.23591    0.56791    1.000
    Si4731   Si       0.93856    0.19621    0.50456    1.000
    N4732    N        0.93589    0.18498    0.58077    1.000
    N4733    N        0.97868    0.18687    0.51389    1.000
    N4734    N        0.83385    0.22257    0.62952    1.000
    N4735    N        0.77124    0.21514    0.73575    1.000
    N4736    N        0.85166    0.19956    0.68405    1.000
    N4737    N        0.77133    0.19961    0.64911    1.000
    Si4738   Si       0.75444    0.23912    0.64864    1.000
    Si4739   Si       0.81445    0.19022    0.65376    1.000
    Si4740   Si       0.94631    0.19562    0.72480    1.000
    N4741    N        0.87868    0.24027    0.73614    1.000
    N4742    N        0.94790    0.24063    0.72562    1.000
    N4743    N        0.97319    0.18825    0.69124    1.000
    Si4744   Si       0.87104    0.22710    0.64993    1.000
    N4745    N        0.89858    0.19087    0.64175    1.000
    Si4746   Si       0.86732    0.19898    0.72748    1.000
    N4747    N        0.83269    0.21564    0.86158    1.000
    N4748    N        0.80326    0.19972    0.79893    1.000
    Si4749   Si       0.80487    0.22989    0.82982    1.000
    Si4750   Si       0.76902    0.19344    0.77094    1.000
    N4751    N        0.76220    0.24267    0.84330    1.000
    Si4752   Si       0.87202    0.21089    0.84294    1.000
    Si4753   Si       0.97606    0.20471    0.79780    1.000
    N4754    N        0.96661    0.22177    0.83468    1.000
    Si4755   Si       0.81602    0.20337    0.90124    1.000
    N4756    N        0.80224    0.19103    0.97805    1.000
    N4757    N        0.80451    0.24258    0.91883    1.000
    Si4758   Si       0.77316    0.22107    0.99213    1.000
    N4759    N        0.86717    0.24186    0.94678    1.000
    N4760    N        0.91866    0.19380    0.93469    1.000
    Si4761   Si       0.93010    0.20196    0.89302    1.000
    Si4762   Si       0.87774    0.19949    0.94501    1.000
    N4763    N        0.93274    0.24456    0.88745    1.000
    Si4764   Si       0.79141    0.27862    0.03421    1.000
    Si4765   Si       0.83979    0.27010    0.10079    1.000
    N4766    N        0.82568    0.28766    0.06027    1.000
    N4767    N        0.76101    0.30354    0.04967    1.000
    Si4768   Si       0.86765    0.28700    0.04494    1.000
    N4769    N        0.88099    0.26627    0.08110    1.000
    N4770    N        0.94867    0.26319    0.06092    1.000
    Si4771   Si       0.95942    0.24958    0.02081    1.000
    N4772    N        0.87152    0.28347    0.00217    1.000
    Si4773   Si       0.96545    0.30005    0.07725    1.000
    N4774    N        0.97535    0.28517    0.00004    1.000
    N4775    N        0.96567    0.29047    0.12131    1.000
    N4776    N        0.83046    0.24957    0.21275    1.000
    N4777    N        0.76270    0.26610    0.18793    1.000
    N4778    N        0.81364    0.27055    0.14256    1.000
    Si4779   Si       0.84382    0.25708    0.17234    1.000
    Si4780   Si       0.77263    0.25733    0.14607    1.000
    Si4781   Si       0.85796    0.28779    0.22926    1.000
    N4782    N        0.85631    0.29830    0.18404    1.000
    Si4783   Si       0.95341    0.25507    0.14288    1.000
    N4784    N        0.88770    0.25520    0.23726    1.000
    N4785    N        0.93480    0.27375    0.18030    1.000
    Si4786   Si       0.93011    0.24883    0.24134    1.000
    N4787    N        0.94976    0.28900    0.24191    1.000
    Si4788   Si       0.84220    0.27166    0.34974    1.000
    N4789    N        0.83108    0.29233    0.26417    1.000
    Si4790   Si       0.81092    0.25739    0.28158    1.000
    N4791    N        0.80417    0.26179    0.32347    1.000
    Si4792   Si       0.78237    0.25709    0.36251    1.000
    N4793    N        0.74845    0.28176    0.36668    1.000
    N4794    N        0.77558    0.24601    0.25838    1.000
    Si4795   Si       0.96555    0.27831    0.28329    1.000
    N4796    N        0.95956    0.30048    0.32246    1.000
    Si4797   Si       0.98761    0.28971    0.35587    1.000
    N4798    N        0.81495    0.27675    0.38316    1.000
    Si4799   Si       0.83639    0.26443    0.46142    1.000
    Si4800   Si       0.97080    0.28962    0.43237    1.000
    N4801    N        0.93881    0.26406    0.43765    1.000
    N4802    N        0.88307    0.28217    0.37501    1.000
    N4803    N        0.87637    0.25276    0.46903    1.000
    N4804    N        0.75466    0.26323    0.53496    1.000
    Si4805   Si       0.78720    0.28829    0.52391    1.000
    N4806    N        0.76430    0.25427    0.60788    1.000
    N4807    N        0.81624    0.26406    0.50465    1.000
    Si4808   Si       0.81010    0.25046    0.60570    1.000
    N4809    N        0.82043    0.28807    0.62306    1.000
    Si4810   Si       0.73722    0.24930    0.57459    1.000
    N4811    N        0.87980    0.27681    0.53094    1.000
    N4812    N        0.92227    0.25688    0.59110    1.000
    Si4813   Si       0.90987    0.28775    0.56308    1.000
    N4814    N        0.94797    0.29581    0.54483    1.000
    Si4815   Si       0.98545    0.27275    0.54402    1.000
    Si4816   Si       0.88964    0.24115    0.51072    1.000
    Si4817   Si       0.84672    0.27021    0.73467    1.000
    N4818    N        0.84439    0.28063    0.69285    1.000
    Si4819   Si       0.81020    0.28773    0.66695    1.000
    N4820    N        0.78009    0.26036    0.67716    1.000
    Si4821   Si       0.77237    0.25529    0.72115    1.000
    N4822    N        0.80498    0.26872    0.74429    1.000
    Si4823   Si       0.91384    0.26533    0.73266    1.000
    Si4824   Si       0.88055    0.29598    0.67486    1.000
    Si4825   Si       0.98447    0.29322    0.65559    1.000
    N4826    N        0.96817    0.25023    0.65300    1.000
    Si4827   Si       0.98642    0.25762    0.73898    1.000
    N4828    N        0.90952    0.30049    0.70653    1.000
    Si4829   Si       0.93387    0.26859    0.63163    1.000
    N4830    N        0.89665    0.26281    0.65197    1.000
    N4831    N        0.81606    0.27404    0.82419    1.000
    Si4832   Si       0.77276    0.28194    0.83062    1.000
    N4833    N        0.76479    0.29119    0.78979    1.000
    Si4834   Si       0.81038    0.29394    0.78175    1.000
    N4835    N        0.85506    0.29434    0.76930    1.000
    Si4836   Si       0.85392    0.28716    0.84822    1.000
    N4837    N        0.98102    0.29056    0.85563    1.000
    Si4838   Si       0.88629    0.28198    0.79580    1.000
    N4839    N        0.92271    0.28127    0.77095    1.000
    N4840    N        0.87815    0.24928    0.82347    1.000
    Si4841   Si       0.96988    0.24913    0.86727    1.000
    N4842    N        0.98886    0.29770    0.75401    1.000
    Si4843   Si       0.84228    0.26583    0.92222    1.000
    N4844    N        0.76475    0.29398    0.92342    1.000
    Si4845   Si       0.76540    0.25344    0.92629    1.000
    N4846    N        0.75269    0.25142    0.96977    1.000
    Si4847   Si       0.76504    0.30053    0.96845    1.000
    N4848    N        0.80108    0.29003    0.99199    1.000
    N4849    N        0.87066    0.27369    0.88834    1.000
    Si4850   Si       0.89634    0.26053    0.97543    1.000
    N4851    N        0.91988    0.28117    0.94562    1.000
    Si4852   Si       0.91181    0.27949    0.90215    1.000
    Si4853   Si       0.95357    0.30177    0.96662    1.000
    N4854    N        0.84841    0.31525    0.11684    1.000
    Si4855   Si       0.74367    0.33590    0.06917    1.000
    N4856    N        0.73863    0.34023    0.11304    1.000
    Si4857   Si       0.87113    0.34076    0.09223    1.000
    N4858    N        0.87980    0.32913    0.04789    1.000
    Si4859   Si       0.91542    0.34077    0.02555    1.000
    N4860    N        0.94454    0.33411    0.05729    1.000
    N4861    N        0.97722    0.35651    0.11092    1.000
    Si4862   Si       0.82718    0.31458    0.15643    1.000
    N4863    N        0.79746    0.33758    0.17552    1.000
    N4864    N        0.92643    0.34098    0.19167    1.000
    N4865    N        0.88353    0.32363    0.23420    1.000
    Si4866   Si       0.88484    0.33256    0.19185    1.000
    N4867    N        0.98749    0.32085    0.18318    1.000
    Si4868   Si       0.95025    0.30706    0.20307    1.000
    Si4869   Si       0.83508    0.32420    0.29403    1.000
    Si4870   Si       0.75181    0.32476    0.30192    1.000
    N4871    N        0.79577    0.33853    0.30642    1.000
    N4872    N        0.74477    0.34408    0.26313    1.000
    N4873    N        0.85762    0.30539    0.32480    1.000
    Si4874   Si       0.94290    0.34084    0.32623    1.000
    N4875    N        0.91039    0.35172    0.35257    1.000
    Si4876   Si       0.89912    0.35351    0.26065    1.000
    N4877    N        0.93549    0.35194    0.28492    1.000
    Si4878   Si       0.87826    0.32269    0.35878    1.000
    Si4879   Si       0.74242    0.31113    0.39984    1.000
    Si4880   Si       0.81836    0.33522    0.47928    1.000
    N4881    N        0.78029    0.33022    0.41050    1.000
    N4882    N        0.84623    0.34010    0.38307    1.000
    Si4883   Si       0.82044    0.31376    0.40738    1.000
    N4884    N        0.83110    0.30611    0.44851    1.000
    N4885    N        0.90627    0.34532    0.46112    1.000
    N4886    N        0.97349    0.30703    0.39224    1.000
    Si4887   Si       0.98659    0.34965    0.38837    1.000
    Si4888   Si       0.94577    0.35413    0.45516    1.000
    N4889    N        0.97531    0.32339    0.45995    1.000
    N4890    N        0.76446    0.33179    0.60960    1.000
    Si4891   Si       0.80622    0.32107    0.60096    1.000
    N4892    N        0.85170    0.33543    0.50656    1.000
    N4893    N        0.82552    0.35758    0.61419    1.000
    Si4894   Si       0.74826    0.35128    0.50362    1.000
    Si4895   Si       0.75026    0.35576    0.57568    1.000
    Si4896   Si       0.85128    0.30885    0.54167    1.000
    N4897    N        0.81092    0.30524    0.55897    1.000
    N4898    N        0.78210    0.32362    0.49894    1.000
    N4899    N        0.87783    0.31729    0.57636    1.000
    Si4900   Si       0.95725    0.33939    0.53986    1.000
    N4901    N        0.91587    0.35222    0.53367    1.000
    Si4902   Si       0.95615    0.35198    0.61343    1.000
    Si4903   Si       0.89008    0.35708    0.49769    1.000
    Si4904   Si       0.89303    0.35751    0.57072    1.000
    N4905    N        0.97053    0.36232    0.57248    1.000
    N4906    N        0.79787    0.32818    0.66984    1.000
    Si4907   Si       0.76125    0.34190    0.65204    1.000
    Si4908   Si       0.83014    0.35347    0.65808    1.000
    N4909    N        0.95583    0.31203    0.62839    1.000
    Si4910   Si       0.94066    0.33051    0.70479    1.000
    N4911    N        0.98091    0.31689    0.69160    1.000
    N4912    N        0.86888    0.33541    0.66054    1.000
    N4913    N        0.94432    0.34674    0.74579    1.000
    N4914    N        0.80820    0.33872    0.79663    1.000
    Si4915   Si       0.80843    0.33991    0.84104    1.000
    N4916    N        0.77458    0.31550    0.85559    1.000
    N4917    N        0.83706    0.32396    0.87032    1.000
    N4918    N        0.94990    0.32762    0.81271    1.000
    Si4919   Si       0.95250    0.31221    0.77358    1.000
    N4920    N        0.88501    0.31356    0.82747    1.000
    Si4921   Si       0.96016    0.32831    0.85702    1.000
    Si4922   Si       0.91246    0.34962    0.82357    1.000
    Si4923   Si       0.84872    0.33731    0.90907    1.000
    N4924    N        0.76971    0.34514    0.96877    1.000
    Si4925   Si       0.74897    0.31623    0.89105    1.000
    Si4926   Si       0.84054    0.30704    0.98326    1.000
    N4927    N        0.84598    0.30729    0.94022    1.000
    N4928    N        0.83244    0.34768    0.99827    1.000
    N4929    N        0.74478    0.35922    0.89733    1.000
    N4930    N        0.87990    0.36593    0.91282    1.000
    N4931    N        0.93190    0.33591    0.98539    1.000
    N4932    N        0.92898    0.31812    0.88835    1.000
    Si4933   Si       0.92009    0.36092    0.89773    1.000
    N4934    N        0.98559    0.30735    0.93520    1.000
    Si4935   Si       0.99052    0.34576    0.91846    1.000
    N4936    N        0.84786    0.37240    0.07566    1.000
    N4937    N        0.75602    0.37235    0.04880    1.000
    Si4938   Si       0.75876    0.39722    0.01074    1.000
    N4939    N        0.83585    0.40974    0.02632    1.000
    Si4940   Si       0.76523    0.40779    0.07078    1.000
    Si4941   Si       0.85483    0.36754    0.02925    1.000
    Si4942   Si       0.83969    0.41312    0.07034    1.000
    N4943    N        0.95207    0.40245    0.06368    1.000
    N4944    N        0.89564    0.38112    0.01774    1.000
    Si4945   Si       0.98289    0.39813    0.03310    1.000
    Si4946   Si       0.94239    0.36526    0.08701    1.000
    N4947    N        0.90535    0.36036    0.10856    1.000
    N4948    N        0.77526    0.39325    0.14868    1.000
    Si4949   Si       0.78497    0.37734    0.18661    1.000
    Si4950   Si       0.85528    0.40901    0.17622    1.000
    N4951    N        0.81859    0.40429    0.20218    1.000
    N4952    N        0.75007    0.38834    0.21172    1.000
    Si4953   Si       0.73772    0.38177    0.12796    1.000
    N4954    N        0.90604    0.39006    0.23806    1.000
    Si4955   Si       0.93519    0.38243    0.20643    1.000
    N4956    N        0.86585    0.36583    0.17174    1.000
    N4957    N        0.97062    0.37475    0.22731    1.000
    N4958    N        0.94530    0.41501    0.18294    1.000
    Si4959   Si       0.98861    0.42231    0.18825    1.000
    N4960    N        0.79107    0.40021    0.26854    1.000
    Si4961   Si       0.79675    0.38155    0.30631    1.000
    N4962    N        0.83051    0.39624    0.33416    1.000
    N4963    N        0.76569    0.39793    0.33173    1.000
    Si4964   Si       0.75281    0.38689    0.25406    1.000
    Si4965   Si       0.86145    0.39817    0.30233    1.000
    Si4966   Si       0.79532    0.41567    0.35779    1.000
    N4967    N        0.86253    0.35982    0.28445    1.000
    Si4968   Si       0.96885    0.37519    0.27012    1.000
    N4969    N        0.97609    0.41306    0.29189    1.000
    Si4970   Si       0.91274    0.39592    0.36212    1.000
    N4971    N        0.89782    0.41218    0.32311    1.000
    N4972    N        0.97480    0.36387    0.34803    1.000
    Si4973   Si       0.84332    0.38206    0.37539    1.000
    Si4974   Si       0.78621    0.37241    0.42385    1.000
    N4975    N        0.81229    0.37361    0.46041    1.000
    N4976    N        0.75061    0.39508    0.43415    1.000
    N4977    N        0.80616    0.39517    0.39319    1.000
    Si4978   Si       0.81793    0.41714    0.47104    1.000
    Si4979   Si       0.74616    0.41877    0.47117    1.000
    N4980    N        0.94994    0.38952    0.48288    1.000
    Si4981   Si       0.95421    0.41434    0.42283    1.000
    Si4982   Si       0.98634    0.41318    0.48469    1.000
    N4983    N        0.87911    0.40029    0.39143    1.000
    N4984    N        0.96238    0.37184    0.41821    1.000
    N4985    N        0.87970    0.40140    0.49779    1.000
    Si4986   Si       0.82614    0.38916    0.58624    1.000
    N4987    N        0.78454    0.38143    0.56716    1.000
    N4988    N        0.75086    0.39433    0.50681    1.000
    Si4989   Si       0.77624    0.41359    0.53618    1.000
    N4990    N        0.86027    0.38309    0.56037    1.000
    Si4991   Si       0.85536    0.41440    0.53130    1.000
    N4992    N        0.81491    0.41485    0.51544    1.000
    N4993    N        0.91415    0.36220    0.60843    1.000
    N4994    N        0.75872    0.38300    0.66738    1.000
    Si4995   Si       0.79036    0.39526    0.69335    1.000
    N4996    N        0.79650    0.37345    0.72875    1.000
    N4997    N        0.82483    0.39610    0.66964    1.000
    Si4998   Si       0.89736    0.36509    0.64744    1.000
    N4999    N        0.92978    0.36282    0.67606    1.000
    N5000    N        0.88929    0.40675    0.65604    1.000
    Si5001   Si       0.92066    0.40510    0.68691    1.000
    N5002    N        0.90186    0.40499    0.72523    1.000
    N5003    N        0.98316    0.38595    0.62744    1.000
    N5004    N        0.79223    0.37854    0.85225    1.000
    N5005    N        0.75642    0.38496    0.79212    1.000
    N5006    N        0.82337    0.40357    0.78802    1.000
    Si5007   Si       0.79406    0.37315    0.77229    1.000
    Si5008   Si       0.81453    0.41012    0.82962    1.000
    Si5009   Si       0.74835    0.37722    0.83460    1.000
    N5010    N        0.85860    0.40763    0.83982    1.000
    Si5011   Si       0.86809    0.40408    0.79666    1.000
    N5012    N        0.89941    0.37458    0.79078    1.000
    Si5013   Si       0.92456    0.38481    0.75663    1.000
    N5014    N        0.92995    0.37256    0.85529    1.000
    N5015    N        0.96176    0.40887    0.76573    1.000
    Si5016   Si       0.93904    0.41417    0.85835    1.000
    Si5017   Si       0.78197    0.38131    0.89585    1.000
    N5018    N        0.78899    0.40650    0.97974    1.000
    N5019    N        0.81599    0.36999    0.92329    1.000
    Si5020   Si       0.85159    0.39695    0.92302    1.000
    N5021    N        0.85292    0.40523    0.96586    1.000
    Si5022   Si       0.80789    0.36869    0.96711    1.000
    N5023    N        0.98202    0.38117    0.99452    1.000
    N5024    N        0.92290    0.41320    0.96451    1.000
    Si5025   Si       0.88713    0.41411    0.98999    1.000
    N5026    N        0.95218    0.36690    0.92653    1.000
    Si5027   Si       0.94388    0.37506    0.97001    1.000
    N5028    N        0.75437    0.43283    0.03542    1.000
    N5029    N        0.80543    0.46966    0.01685    1.000
    Si5030   Si       0.76427    0.47340    0.03377    1.000
    N5031    N        0.80087    0.41943    0.08935    1.000
    N5032    N        0.87445    0.43969    0.07618    1.000
    N5033    N        0.97363    0.45739    0.10372    1.000
    Si5034   Si       0.95748    0.44862    0.06354    1.000
    N5035    N        0.88625    0.45439    0.00666    1.000
    Si5036   Si       0.88580    0.46851    0.04784    1.000
    N5037    N        0.98541    0.44182    0.03113    1.000
    N5038    N        0.92775    0.47797    0.05252    1.000
    N5039    N        0.79093    0.46410    0.22800    1.000
    N5040    N        0.78878    0.46286    0.14623    1.000
    N5041    N        0.84594    0.42542    0.13885    1.000
    Si5042   Si       0.80078    0.42528    0.13120    1.000
    Si5043   Si       0.81217    0.42503    0.24012    1.000
    Si5044   Si       0.78129    0.47949    0.18678    1.000
    N5045    N        0.88090    0.43819    0.19876    1.000
    Si5046   Si       0.87312    0.45193    0.11727    1.000
    N5047    N        0.91269    0.46341    0.13690    1.000
    Si5048   Si       0.88546    0.42776    0.24150    1.000
    Si5049   Si       0.92007    0.45021    0.17784    1.000
    N5050    N        0.79180    0.45695    0.35871    1.000
    N5051    N        0.84919    0.42854    0.26836    1.000
    Si5052   Si       0.84224    0.46857    0.28652    1.000
    N5053    N        0.80037    0.47588    0.29539    1.000
    N5054    N        0.87157    0.47386    0.31895    1.000
    Si5055   Si       0.90717    0.45359    0.30785    1.000
    N5056    N        0.90920    0.45842    0.26379    1.000
    N5057    N        0.93667    0.47301    0.33266    1.000
    N5058    N        0.78155    0.44215    0.46868    1.000
    N5059    N        0.84666    0.43661    0.44488    1.000
    Si5060   Si       0.93376    0.46479    0.37495    1.000
    N5061    N        0.94272    0.42138    0.38034    1.000
    N5062    N        0.98516    0.43684    0.44781    1.000
    Si5063   Si       0.88117    0.43537    0.41687    1.000
    N5064    N        0.89294    0.46581    0.38792    1.000
    N5065    N        0.91721    0.42878    0.43984    1.000
    Si5066   Si       0.91617    0.42037    0.48470    1.000
    N5067    N        0.75471    0.44424    0.55945    1.000
    Si5068   Si       0.84586    0.46691    0.58457    1.000
    N5069    N        0.83497    0.42936    0.60368    1.000
    N5070    N        0.86164    0.45451    0.54440    1.000
    Si5071   Si       0.96466    0.46947    0.53106    1.000
    N5072    N        0.92601    0.45357    0.50956    1.000
    Si5073   Si       0.89324    0.47906    0.52376    1.000
    N5074    N        0.95032    0.47696    0.57065    1.000
    Si5075   Si       0.74386    0.45164    0.70767    1.000
    N5076    N        0.84946    0.46400    0.73016    1.000
    N5077    N        0.84302    0.46386    0.66303    1.000
    N5078    N        0.78395    0.43774    0.70222    1.000
    Si5079   Si       0.81940    0.46634    0.69943    1.000
    Si5080   Si       0.85003    0.42444    0.64738    1.000
    Si5081   Si       0.88791    0.44402    0.73787    1.000
    Si5082   Si       0.95400    0.46475    0.69849    1.000
    N5083    N        0.98634    0.46471    0.72803    1.000
    N5084    N        0.95503    0.42655    0.67887    1.000
    N5085    N        0.91522    0.47036    0.71936    1.000
    N5086    N        0.79520    0.44547    0.83871    1.000
    Si5087   Si       0.98700    0.44463    0.76651    1.000
    N5088    N        0.88403    0.43966    0.78049    1.000
    N5089    N        0.92984    0.44237    0.82866    1.000
    Si5090   Si       0.89034    0.47296    0.80698    1.000
    N5091    N        0.98766    0.47541    0.79898    1.000
    N5092    N        0.86721    0.47423    0.84472    1.000
    N5093    N        0.98068    0.41999    0.87423    1.000
    Si5094   Si       0.87441    0.43688    0.86735    1.000
    N5095    N        0.77084    0.42022    0.91145    1.000
    N5096    N        0.74316    0.47191    0.87425    1.000
    N5097    N        0.84583    0.43311    0.89972    1.000
    N5098    N        0.81329    0.45919    0.95293    1.000
    Si5099   Si       0.77735    0.43806    0.95052    1.000
    Si5100   Si       0.84653    0.46539    0.92614    1.000
    Si5101   Si       0.82359    0.43252    0.99128    1.000
    N5102    N        0.88941    0.46491    0.94032    1.000
    Si5103   Si       0.92257    0.43896    0.92873    1.000
    N5104    N        0.95805    0.46392    0.92475    1.000
    Si5105   Si       0.98456    0.46131    0.88950    1.000
    N5106    N        0.91113    0.42840    0.88994    1.000
    Si5107   Si       0.83148    0.50399    0.01148    1.000
    N5108    N        0.80063    0.52110    0.10076    1.000
    Si5109   Si       0.84382    0.51990    0.08469    1.000
    Si5110   Si       0.76090    0.52759    0.08647    1.000
    N5111    N        0.85603    0.50246    0.04715    1.000
    N5112    N        0.74855    0.50223    0.00592    1.000
    N5113    N        0.74606    0.48816    0.07436    1.000
    N5114    N        0.85279    0.49209    0.11696    1.000
    Si5115   Si       0.94037    0.51048    0.02755    1.000
    N5116    N        0.94370    0.52789    0.10278    1.000
    N5117    N        0.98457    0.50819    0.03308    1.000
    Si5118   Si       0.94434    0.48715    0.12023    1.000
    Si5119   Si       0.98792    0.53731    0.11578    1.000
    Si5120   Si       0.81479    0.49671    0.13504    1.000
    N5121    N        0.81817    0.50521    0.17805    1.000
    N5122    N        0.74887    0.50709    0.18389    1.000
    Si5123   Si       0.74303    0.52595    0.22737    1.000
    N5124    N        0.79011    0.53737    0.23386    1.000
    Si5125   Si       0.93478    0.48636    0.24323    1.000
    Si5126   Si       0.97370    0.51061    0.18553    1.000
    N5127    N        0.91524    0.52514    0.24022    1.000
    N5128    N        0.97863    0.50276    0.14416    1.000
    N5129    N        0.94352    0.48204    0.19947    1.000
    N5130    N        0.76904    0.51594    0.35169    1.000
    Si5131   Si       0.79553    0.49851    0.25762    1.000
    N5132    N        0.74882    0.50493    0.26359    1.000
    N5133    N        0.84229    0.50067    0.25853    1.000
    Si5134   Si       0.77093    0.47956    0.32832    1.000
    Si5135   Si       0.87132    0.48935    0.35845    1.000
    Si5136   Si       0.96608    0.50052    0.31539    1.000
    N5137    N        0.89445    0.52784    0.35974    1.000
    Si5138   Si       0.87473    0.52867    0.25466    1.000
    N5139    N        0.96746    0.48675    0.27136    1.000
    N5140    N        0.83754    0.50754    0.37701    1.000
    Si5141   Si       0.78005    0.48329    0.45963    1.000
    N5142    N        0.77396    0.49238    0.41793    1.000
    Si5143   Si       0.79662    0.49301    0.38076    1.000
    N5144    N        0.81559    0.50073    0.47441    1.000
    N5145    N        0.74370    0.50573    0.47267    1.000
    Si5146   Si       0.92437    0.53069    0.39578    1.000
    N5147    N        0.88597    0.50193    0.48788    1.000
    N5148    N        0.95596    0.50128    0.39103    1.000
    Si5149   Si       0.89073    0.53634    0.46376    1.000
    N5150    N        0.89227    0.52951    0.42236    1.000
    N5151    N        0.76957    0.51549    0.54078    1.000
    N5152    N        0.81176    0.49084    0.58018    1.000
    Si5153   Si       0.80451    0.53025    0.56284    1.000
    N5154    N        0.74717    0.49718    0.60713    1.000
    Si5155   Si       0.76708    0.48347    0.57191    1.000
    Si5156   Si       0.75365    0.53557    0.50415    1.000
    N5157    N        0.83549    0.54070    0.53538    1.000
    N5158    N        0.90120    0.51291    0.55016    1.000
    N5159    N        0.97849    0.50544    0.51113    1.000
    Si5160   Si       0.91914    0.50102    0.58999    1.000
    N5161    N        0.87995    0.48514    0.60622    1.000
    N5162    N        0.74400    0.48718    0.67947    1.000
    N5163    N        0.74503    0.52498    0.74084    1.000
    Si5164   Si       0.76265    0.51969    0.70181    1.000
    N5165    N        0.80433    0.50690    0.70600    1.000
    N5166    N        0.83948    0.53268    0.64820    1.000
    N5167    N        0.86066    0.53169    0.71746    1.000
    Si5168   Si       0.89860    0.50970    0.71250    1.000
    N5169    N        0.90035    0.50908    0.66882    1.000
    Si5170   Si       0.93720    0.52865    0.65604    1.000
    Si5171   Si       0.86615    0.49782    0.64529    1.000
    N5172    N        0.96550    0.49588    0.66970    1.000
    N5173    N        0.92453    0.53482    0.73833    1.000
    N5174    N        0.80136    0.51419    0.85233    1.000
    Si5175   Si       0.84416    0.50929    0.86211    1.000
    Si5176   Si       0.75995    0.49265    0.76745    1.000
    N5177    N        0.74986    0.49341    0.80951    1.000
    N5178    N        0.80180    0.49090    0.76951    1.000
    Si5179   Si       0.83584    0.50823    0.75205    1.000
    N5180    N        0.86672    0.50686    0.78457    1.000
    Si5181   Si       0.77348    0.47995    0.84466    1.000
    N5182    N        0.92067    0.50428    0.81624    1.000
    N5183    N        0.96847    0.49263    0.86367    1.000
    Si5184   Si       0.89049    0.53363    0.81052    1.000
    Si5185   Si       0.95316    0.47810    0.82593    1.000
    N5186    N        0.84599    0.50563    0.90705    1.000
    N5187    N        0.85980    0.51120    0.97488    1.000
    Si5188   Si       0.89499    0.48661    0.97842    1.000
    Si5189   Si       0.96270    0.50078    0.94852    1.000
    Si5190   Si       0.97185    0.53362    0.87807    1.000
    N5191    N        0.95927    0.53451    0.92191    1.000
    N5192    N        0.93432    0.50297    0.98447    1.000
    N5193    N        0.75658    0.55560    0.05291    1.000
    N5194    N        0.85663    0.56095    0.08855    1.000
    N5195    N        0.80900    0.54285    0.00865    1.000
    Si5196   Si       0.76442    0.54074    0.01364    1.000
    Si5197   Si       0.94250    0.56369    0.07573    1.000
    N5198    N        0.92694    0.55234    0.03689    1.000
    N5199    N        0.98656    0.56455    0.07395    1.000
    Si5200   Si       0.88100    0.58727    0.11311    1.000
    Si5201   Si       0.91078    0.59135    0.02277    1.000
    N5202    N        0.92044    0.59329    0.09516    1.000
    N5203    N        0.74895    0.58530    0.16392    1.000
    N5204    N        0.82281    0.57090    0.17427    1.000
    N5205    N        0.85938    0.55216    0.22094    1.000
    Si5206   Si       0.86184    0.58446    0.19038    1.000
    Si5207   Si       0.82172    0.53864    0.20544    1.000
    Si5208   Si       0.78045    0.57769    0.24893    1.000
    N5209    N        0.95755    0.55158    0.18930    1.000
    N5210    N        0.88766    0.57951    0.15576    1.000
    Si5211   Si       0.93297    0.56243    0.22565    1.000
    N5212    N        0.91292    0.59920    0.21395    1.000
    Si5213   Si       0.75577    0.55401    0.36722    1.000
    N5214    N        0.76851    0.58561    0.29229    1.000
    Si5215   Si       0.85658    0.58817    0.28663    1.000
    N5216    N        0.94631    0.53781    0.31066    1.000
    N5217    N        0.87633    0.54945    0.29292    1.000
    Si5218   Si       0.97575    0.57086    0.29601    1.000
    Si5219   Si       0.90712    0.54978    0.32475    1.000
    N5220    N        0.91928    0.58831    0.33914    1.000
    Si5221   Si       0.95762    0.58708    0.36260    1.000
    N5222    N        0.96704    0.56701    0.25152    1.000
    N5223    N        0.78183    0.58779    0.36807    1.000
    Si5224   Si       0.82455    0.53786    0.49415    1.000
    N5225    N        0.85596    0.55870    0.47703    1.000
    N5226    N        0.85271    0.58076    0.38864    1.000
    Si5227   Si       0.96304    0.54298    0.49307    1.000
    N5228    N        0.92886    0.55546    0.47160    1.000
    Si5229   Si       0.86212    0.54119    0.39079    1.000
    Si5230   Si       0.95317    0.57567    0.44200    1.000
    N5231    N        0.94512    0.56750    0.40037    1.000
    N5232    N        0.98951    0.55628    0.45895    1.000
    Si5233   Si       0.86320    0.59551    0.50107    1.000
    N5234    N        0.80098    0.55953    0.59345    1.000
    Si5235   Si       0.83512    0.56430    0.61665    1.000
    Si5236   Si       0.78052    0.59920    0.59006    1.000
    N5237    N        0.75067    0.59796    0.55798    1.000
    N5238    N        0.78743    0.56121    0.49137    1.000
    N5239    N        0.86961    0.56113    0.59228    1.000
    N5240    N        0.89376    0.58194    0.52874    1.000
    N5241    N        0.96642    0.57370    0.52397    1.000
    Si5242   Si       0.90603    0.57653    0.60769    1.000
    Si5243   Si       0.87491    0.54861    0.54962    1.000
    Si5244   Si       0.96952    0.57375    0.60096    1.000
    N5245    N        0.93247    0.54063    0.61333    1.000
    Si5246   Si       0.85345    0.56963    0.73785    1.000
    N5247    N        0.82878    0.58424    0.70359    1.000
    Si5248   Si       0.74711    0.57572    0.65375    1.000
    N5249    N        0.77817    0.55582    0.67991    1.000
    Si5250   Si       0.82225    0.54272    0.68780    1.000
    Si5251   Si       0.78181    0.59643    0.70513    1.000
    N5252    N        0.95658    0.58846    0.74616    1.000
    Si5253   Si       0.96397    0.55397    0.72354    1.000
    N5254    N        0.97768    0.59590    0.63782    1.000
    N5255    N        0.94760    0.56020    0.68353    1.000
    N5256    N        0.76785    0.57091    0.81258    1.000
    N5257    N        0.82333    0.55393    0.76272    1.000
    Si5258   Si       0.77709    0.55254    0.85042    1.000
    Si5259   Si       0.84280    0.58431    0.84512    1.000
    Si5260   Si       0.79515    0.58044    0.78190    1.000
    N5261    N        0.80742    0.57900    0.86861    1.000
    N5262    N        0.86150    0.54416    0.84077    1.000
    N5263    N        0.73961    0.54739    0.87052    1.000
    N5264    N        0.91511    0.57051    0.80314    1.000
    Si5265   Si       0.91830    0.57481    0.76092    1.000
    Si5266   Si       0.91824    0.59189    0.84150    1.000
    N5267    N        0.94150    0.56569    0.86963    1.000
    N5268    N        0.75110    0.59136    0.92152    1.000
    N5269    N        0.84991    0.57706    0.96444    1.000
    N5270    N        0.80234    0.54728    0.94059    1.000
    Si5271   Si       0.76000    0.55412    0.93969    1.000
    Si5272   Si       0.80827    0.57465    0.97825    1.000
    N5273    N        0.75642    0.56821    0.98170    1.000
    Si5274   Si       0.84638    0.53613    0.93859    1.000
    Si5275   Si       0.92980    0.56604    0.91086    1.000
    N5276    N        0.88723    0.55707    0.92004    1.000
    N5277    N        0.91389    0.59403    0.98090    1.000
    Si5278   Si       0.79287    0.63653    0.02124    1.000
    N5279    N        0.80394    0.60694    0.05412    1.000
    N5280    N        0.85349    0.62060    0.10291    1.000
    N5281    N        0.74900    0.62754    0.02756    1.000
    N5282    N        0.74707    0.60856    0.09913    1.000
    Si5283   Si       0.76496    0.64472    0.11740    1.000
    Si5284   Si       0.84320    0.59687    0.06736    1.000
    Si5285   Si       0.76094    0.59722    0.06045    1.000
    Si5286   Si       0.82788    0.65163    0.12051    1.000
    N5287    N        0.97973    0.63095    0.09576    1.000
    N5288    N        0.94281    0.61784    0.04025    1.000
    Si5289   Si       0.93807    0.63068    0.08252    1.000
    Si5290   Si       0.97655    0.63235    0.01568    1.000
    N5291    N        0.87398    0.60505    0.03715    1.000
    N5292    N        0.85388    0.62269    0.20801    1.000
    N5293    N        0.78208    0.60905    0.21145    1.000
    Si5294   Si       0.81637    0.62638    0.22917    1.000
    N5295    N        0.79730    0.63160    0.14515    1.000
    Si5296   Si       0.78966    0.59684    0.16881    1.000
    Si5297   Si       0.92353    0.60096    0.17017    1.000
    N5298    N        0.91483    0.64047    0.15513    1.000
    N5299    N        0.96594    0.61132    0.17529    1.000
    Si5300   Si       0.88875    0.62797    0.23324    1.000
    Si5301   Si       0.80121    0.61316    0.30071    1.000
    N5302    N        0.83394    0.59891    0.32404    1.000
    Si5303   Si       0.82291    0.60264    0.36640    1.000
    N5304    N        0.82017    0.59850    0.26191    1.000
    Si5305   Si       0.76803    0.63040    0.36808    1.000
    N5306    N        0.74076    0.63012    0.33267    1.000
    N5307    N        0.79177    0.65439    0.30642    1.000
    N5308    N        0.80940    0.64394    0.36939    1.000
    Si5309   Si       0.98499    0.64923    0.30161    1.000
    N5310    N        0.88955    0.61311    0.27621    1.000
    Si5311   Si       0.91749    0.61796    0.30939    1.000
    N5312    N        0.96088    0.61450    0.29879    1.000
    N5313    N        0.75324    0.61467    0.46951    1.000
    N5314    N        0.81043    0.63178    0.45268    1.000
    Si5315   Si       0.77148    0.64645    0.44468    1.000
    Si5316   Si       0.79332    0.60329    0.48088    1.000
    N5317    N        0.75128    0.64510    0.40465    1.000
    Si5318   Si       0.84914    0.64903    0.45660    1.000
    Si5319   Si       0.92260    0.63701    0.47236    1.000
    Si5320   Si       0.95915    0.64608    0.41272    1.000
    N5321    N        0.94820    0.61874    0.44382    1.000
    N5322    N        0.97805    0.62369    0.38097    1.000
    N5323    N        0.88137    0.62403    0.47240    1.000
    N5324    N        0.81100    0.62732    0.57914    1.000
    N5325    N        0.82647    0.61494    0.51168    1.000
    Si5326   Si       0.84560    0.63652    0.60362    1.000
    Si5327   Si       0.81303    0.64730    0.54081    1.000
    N5328    N        0.77567    0.65851    0.52382    1.000
    N5329    N        0.88149    0.64186    0.57834    1.000
    N5330    N        0.93489    0.63543    0.51301    1.000
    Si5331   Si       0.92380    0.64147    0.59398    1.000
    Si5332   Si       0.93330    0.59773    0.53600    1.000
    N5333    N        0.93426    0.59993    0.58153    1.000
    N5334    N        0.76074    0.60586    0.62736    1.000
    N5335    N        0.79475    0.63133    0.68121    1.000
    Si5336   Si       0.83609    0.61850    0.67651    1.000
    Si5337   Si       0.76158    0.64119    0.65298    1.000
    N5338    N        0.83781    0.60421    0.63557    1.000
    N5339    N        0.77508    0.59983    0.74765    1.000
    N5340    N        0.93013    0.65516    0.63607    1.000
    N5341    N        0.90534    0.59933    0.64456    1.000
    Si5342   Si       0.89310    0.64356    0.65457    1.000
    N5343    N        0.95685    0.63154    0.69211    1.000
    N5344    N        0.87255    0.63530    0.69217    1.000
    Si5345   Si       0.87762    0.63815    0.73530    1.000
    Si5346   Si       0.94274    0.59945    0.66707    1.000
    Si5347   Si       0.98187    0.62006    0.72531    1.000
    N5348    N        0.88424    0.59673    0.74756    1.000
    N5349    N        0.82301    0.60576    0.80630    1.000
    N5350    N        0.75263    0.62247    0.86080    1.000
    Si5351   Si       0.83464    0.64721    0.79479    1.000
    N5352    N        0.83774    0.64918    0.75068    1.000
    N5353    N        0.93056    0.63293    0.83333    1.000
    N5354    N        0.87797    0.61056    0.85059    1.000
    Si5355   Si       0.89092    0.64959    0.83796    1.000
    Si5356   Si       0.77897    0.60565    0.89002    1.000
    Si5357   Si       0.82196    0.63987    0.94992    1.000
    N5358    N        0.80314    0.61794    0.98388    1.000
    N5359    N        0.80381    0.63636    0.90824    1.000
    N5360    N        0.86427    0.63753    0.94681    1.000
    Si5361   Si       0.93520    0.62627    0.96189    1.000
    N5362    N        0.97630    0.62906    0.97331    1.000
    N5363    N        0.92630    0.60730    0.92344    1.000
    Si5364   Si       0.88407    0.59591    0.94361    1.000
    N5365    N        0.80036    0.67962    0.02556    1.000
    Si5366   Si       0.78123    0.69411    0.06502    1.000
    N5367    N        0.79675    0.66633    0.09435    1.000
    N5368    N        0.97404    0.67594    0.02464    1.000
    N5369    N        0.91653    0.66667    0.08817    1.000
    Si5370   Si       0.94066    0.69296    0.00646    1.000
    Si5371   Si       0.91466    0.70985    0.07456    1.000
    N5372    N        0.91045    0.71387    0.03134    1.000
    N5373    N        0.85645    0.68046    0.13519    1.000
    N5374    N        0.75213    0.69895    0.20322    1.000
    N5375    N        0.81003    0.66769    0.23714    1.000
    Si5376   Si       0.76861    0.68128    0.24093    1.000
    Si5377   Si       0.84617    0.68948    0.24946    1.000
    N5378    N        0.94568    0.67291    0.21435    1.000
    Si5379   Si       0.98656    0.68792    0.22907    1.000
    Si5380   Si       0.96539    0.65565    0.17864    1.000
    Si5381   Si       0.91865    0.69756    0.23348    1.000
    N5382    N        0.88302    0.67242    0.23406    1.000
    N5383    N        0.97062    0.68138    0.14222    1.000
    Si5384   Si       0.89925    0.66945    0.12899    1.000
    N5385    N        0.91123    0.70963    0.14146    1.000
    N5386    N        0.84892    0.68585    0.29136    1.000
    Si5387   Si       0.81828    0.68350    0.32306    1.000
    N5388    N        0.84871    0.69037    0.35451    1.000
    Si5389   Si       0.74937    0.66068    0.30401    1.000
    N5390    N        0.74196    0.70055    0.31607    1.000
    N5391    N        0.90683    0.65482    0.32807    1.000
    N5392    N        0.92886    0.70663    0.27448    1.000
    N5393    N        0.97173    0.67725    0.33320    1.000
    Si5394   Si       0.87933    0.68784    0.32250    1.000
    Si5395   Si       0.93266    0.68272    0.34999    1.000
    Si5396   Si       0.82978    0.67764    0.39018    1.000
    N5397    N        0.85229    0.68564    0.47789    1.000
    N5398    N        0.78055    0.68887    0.46033    1.000
    N5399    N        0.85915    0.66138    0.41656    1.000
    Si5400   Si       0.81621    0.71263    0.47558    1.000
    N5401    N        0.80545    0.71257    0.39732    1.000
    Si5402   Si       0.89758    0.68397    0.42077    1.000
    N5403    N        0.92758    0.67007    0.39265    1.000
    N5404    N        0.97951    0.67948    0.43164    1.000
    N5405    N        0.91874    0.68043    0.46034    1.000
    Si5406   Si       0.95893    0.70187    0.46332    1.000
    Si5407   Si       0.89151    0.70310    0.48680    1.000
    N5408    N        0.83284    0.68560    0.55241    1.000
    Si5409   Si       0.75105    0.69200    0.59909    1.000
    Si5410   Si       0.76185    0.69256    0.50084    1.000
    N5411    N        0.95493    0.66188    0.57183    1.000
    Si5412   Si       0.87602    0.68463    0.56237    1.000
    Si5413   Si       0.94154    0.67431    0.53200    1.000
    N5414    N        0.90186    0.69313    0.52892    1.000
    Si5415   Si       0.98170    0.69524    0.58358    1.000
    N5416    N        0.96917    0.69728    0.50623    1.000
    N5417    N        0.88399    0.71469    0.59232    1.000
    N5418    N        0.77741    0.67587    0.63056    1.000
    N5419    N        0.82358    0.69557    0.69378    1.000
    Si5420   Si       0.82144    0.68621    0.73520    1.000
    Si5421   Si       0.79911    0.70120    0.65787    1.000
    N5422    N        0.86020    0.66323    0.63337    1.000
    N5423    N        0.85579    0.71372    0.74155    1.000
    N5424    N        0.90810    0.66879    0.74351    1.000
    Si5425   Si       0.96773    0.66570    0.65898    1.000
    Si5426   Si       0.86606    0.70617    0.63184    1.000
    N5427    N        0.98444    0.69507    0.62739    1.000
    N5428    N        0.94736    0.69703    0.68753    1.000
    Si5429   Si       0.94652    0.67667    0.72633    1.000
    N5430    N        0.97983    0.65588    0.74758    1.000
    N5431    N        0.81582    0.68286    0.81204    1.000
    Si5432   Si       0.83936    0.69981    0.84751    1.000
    N5433    N        0.74979    0.70933    0.81847    1.000
    Si5434   Si       0.78566    0.71048    0.79383    1.000
    N5435    N        0.78394    0.70302    0.75052    1.000
    Si5436   Si       0.88185    0.69350    0.77003    1.000
    N5437    N        0.88048    0.68207    0.86294    1.000
    N5438    N        0.87416    0.66231    0.80033    1.000
    N5439    N        0.98210    0.68508    0.81136    1.000
    Si5440   Si       0.96555    0.65716    0.83944    1.000
    N5441    N        0.94965    0.68664    0.87001    1.000
    N5442    N        0.81487    0.70351    0.88162    1.000
    Si5443   Si       0.79156    0.67777    0.90772    1.000
    N5444    N        0.80393    0.68015    0.95041    1.000
    N5445    N        0.85485    0.69663    0.98830    1.000
    Si5446   Si       0.81067    0.70049    0.98880    1.000
    N5447    N        0.74750    0.68020    0.90127    1.000
    N5448    N        0.91941    0.66338    0.98027    1.000
    Si5449   Si       0.91127    0.70413    0.88262    1.000
    N5450    N        0.90044    0.70420    0.92865    1.000
    Si5451   Si       0.88145    0.67733    0.95913    1.000
    N5452    N        0.99458    0.68171    0.92910    1.000
    Si5453   Si       0.98811    0.68191    0.88748    1.000
    N5454    N        0.78470    0.73762    0.06760    1.000
    Si5455   Si       0.75708    0.76034    0.09314    1.000
    N5456    N        0.84878    0.75233    0.03361    1.000
    Si5457   Si       0.80619    0.75706    0.03411    1.000
    Si5458   Si       0.86340    0.76364    0.07239    1.000
    N5459    N        0.87626    0.72666    0.08982    1.000
    Si5460   Si       0.87629    0.72877    0.00851    1.000
    Si5461   Si       0.97511    0.75834    0.07250    1.000
    N5462    N        0.94904    0.72913    0.09000    1.000
    N5463    N        0.85163    0.75736    0.15062    1.000
    N5464    N        0.78274    0.75962    0.20588    1.000
    Si5465   Si       0.80682    0.75144    0.24246    1.000
    Si5466   Si       0.74734    0.73874    0.22120    1.000
    N5467    N        0.84518    0.73234    0.24316    1.000
    N5468    N        0.77749    0.76888    0.13036    1.000
    Si5469   Si       0.86926    0.72151    0.13241    1.000
    Si5470   Si       0.88075    0.75533    0.24031    1.000
    Si5471   Si       0.94760    0.75315    0.19936    1.000
    N5472    N        0.97896    0.72925    0.21794    1.000
    N5473    N        0.96012    0.75303    0.15871    1.000
    N5474    N        0.91110    0.73633    0.21598    1.000
    Si5475   Si       0.95145    0.71869    0.13253    1.000
    Si5476   Si       0.76578    0.73048    0.29845    1.000
    N5477    N        0.80138    0.72280    0.32453    1.000
    Si5478   Si       0.81099    0.73924    0.36320    1.000
    N5479    N        0.77523    0.72273    0.25657    1.000
    N5480    N        0.74397    0.76746    0.29550    1.000
    N5481    N        0.84984    0.75894    0.36608    1.000
    Si5482   Si       0.92212    0.73740    0.30287    1.000
    N5483    N        0.95830    0.75531    0.32071    1.000
    Si5484   Si       0.96088    0.75777    0.36465    1.000
    N5485    N        0.89629    0.76702    0.28147    1.000
    N5486    N        0.90654    0.71748    0.33874    1.000
    N5487    N        0.83435    0.74916    0.46136    1.000
    N5488    N        0.77081    0.75706    0.44558    1.000
    Si5489   Si       0.77143    0.71956    0.42514    1.000
    Si5490   Si       0.88858    0.74071    0.37230    1.000
    N5491    N        0.90028    0.74538    0.47642    1.000
    N5492    N        0.88555    0.72358    0.41102    1.000
    N5493    N        0.92365    0.76728    0.38102    1.000
    N5494    N        0.96233    0.74369    0.44848    1.000
    Si5495   Si       0.87236    0.75187    0.44210    1.000
    Si5496   Si       0.93529    0.77004    0.47307    1.000
    N5497    N        0.99068    0.72560    0.37642    1.000
    N5498    N        0.82904    0.76109    0.55725    1.000
    N5499    N        0.77369    0.72490    0.57971    1.000
    Si5500   Si       0.75428    0.76523    0.57713    1.000
    Si5501   Si       0.80726    0.72274    0.55113    1.000
    N5502    N        0.79307    0.72351    0.51024    1.000
    N5503    N        0.95680    0.73018    0.56716    1.000
    Si5504   Si       0.91959    0.73943    0.58819    1.000
    Si5505   Si       0.97271    0.76433    0.54426    1.000
    Si5506   Si       0.82463    0.76618    0.64781    1.000
    Si5507   Si       0.74662    0.74840    0.64677    1.000
    N5508    N        0.82814    0.72540    0.63424    1.000
    N5509    N        0.84174    0.76689    0.68862    1.000
    Si5510   Si       0.85476    0.72700    0.69974    1.000
    Si5511   Si       0.75600    0.72081    0.72129    1.000
    N5512    N        0.76601    0.72144    0.67876    1.000
    N5513    N        0.75434    0.76287    0.73728    1.000
    Si5514   Si       0.97502    0.73456    0.71203    1.000
    Si5515   Si       0.92445    0.72935    0.66758    1.000
    N5516    N        0.88435    0.71735    0.67044    1.000
    N5517    N        0.93227    0.74581    0.62923    1.000
    N5518    N        0.94903    0.76043    0.68722    1.000
    N5519    N        0.96143    0.71475    0.74935    1.000
    N5520    N        0.79290    0.75392    0.79655    1.000
    N5521    N        0.85059    0.74079    0.83145    1.000
    Si5522   Si       0.81919    0.77039    0.82697    1.000
    Si5523   Si       0.93862    0.74107    0.77494    1.000
    Si5524   Si       0.89201    0.75048    0.82813    1.000
    N5525    N        0.95969    0.74873    0.81219    1.000
    N5526    N        0.90098    0.72564    0.79191    1.000
    N5527    N        0.97920    0.76164    0.86773    1.000
    N5528    N        0.90740    0.74506    0.86943    1.000
    N5529    N        0.82782    0.76647    0.92091    1.000
    N5530    N        0.75660    0.74235    0.88378    1.000
    Si5531   Si       0.75939    0.76064    0.97603    1.000
    Si5532   Si       0.80089    0.74523    0.89295    1.000
    N5533    N        0.79433    0.73972    0.99652    1.000
    N5534    N        0.95226    0.72229    0.97435    1.000
    Si5535   Si       0.92004    0.73665    0.95112    1.000
    N5536    N        0.93230    0.76807    0.92464    1.000
    N5537    N        0.88606    0.75434    0.97395    1.000
    N5538    N        0.79218    0.79966    0.03048    1.000
    Si5539   Si       0.76365    0.82269    0.05588    1.000
    N5540    N        0.83078    0.78665    0.08782    1.000
    Si5541   Si       0.83330    0.82777    0.07406    1.000
    N5542    N        0.95947    0.79045    0.04850    1.000
    N5543    N        0.89696    0.79212    0.07885    1.000
    Si5544   Si       0.92736    0.81601    0.05931    1.000
    Si5545   Si       0.89592    0.82026    0.11319    1.000
    Si5546   Si       0.81970    0.78079    0.13022    1.000
    N5547    N        0.82623    0.81487    0.15790    1.000
    N5548    N        0.75916    0.81993    0.17229    1.000
    Si5549   Si       0.86262    0.79423    0.17449    1.000
    Si5550   Si       0.76287    0.77687    0.17070    1.000
    N5551    N        0.86138    0.79048    0.21729    1.000
    Si5552   Si       0.83518    0.81653    0.24245    1.000
    Si5553   Si       0.97534    0.81619    0.23700    1.000
    N5554    N        0.94724    0.79547    0.20934    1.000
    Si5555   Si       0.98439    0.78630    0.14649    1.000
    Si5556   Si       0.93100    0.82684    0.18027    1.000
    N5557    N        0.96499    0.82471    0.15149    1.000
    N5558    N        0.89661    0.81408    0.15678    1.000
    Si5559   Si       0.76796    0.80027    0.28089    1.000
    N5560    N        0.80695    0.78962    0.26203    1.000
    N5561    N        0.77119    0.82075    0.31854    1.000
    Si5562   Si       0.83099    0.79774    0.35803    1.000
    Si5563   Si       0.75090    0.78817    0.34727    1.000
    N5564    N        0.78931    0.77775    0.36348    1.000
    N5565    N        0.74438    0.82259    0.25020    1.000
    N5566    N        0.85560    0.80948    0.32462    1.000
    Si5567   Si       0.88441    0.80685    0.29082    1.000
    N5568    N        0.97828    0.82039    0.32262    1.000
    N5569    N        0.98831    0.78259    0.26122    1.000
    N5570    N        0.81945    0.82078    0.44389    1.000
    Si5571   Si       0.80564    0.78192    0.46092    1.000
    N5572    N        0.75353    0.82276    0.45377    1.000
    Si5573   Si       0.85677    0.82719    0.42278    1.000
    N5574    N        0.88026    0.79155    0.42591    1.000
    N5575    N        0.98139    0.79075    0.38340    1.000
    Si5576   Si       0.98225    0.77882    0.42708    1.000
    Si5577   Si       0.91825    0.80064    0.40767    1.000
    N5578    N        0.94675    0.80422    0.44291    1.000
    N5579    N        0.77458    0.80150    0.56370    1.000
    N5580    N        0.85005    0.82210    0.56724    1.000
    Si5581   Si       0.81431    0.80315    0.54681    1.000
    N5582    N        0.80885    0.79997    0.50295    1.000
    Si5583   Si       0.86121    0.77934    0.58136    1.000
    N5584    N        0.84805    0.79247    0.62268    1.000
    Si5585   Si       0.84107    0.83290    0.61082    1.000
    Si5586   Si       0.92713    0.80342    0.54573    1.000
    N5587    N        0.96655    0.80277    0.56624    1.000
    Si5588   Si       0.98304    0.82554    0.60008    1.000
    N5589    N        0.94432    0.77839    0.51394    1.000
    N5590    N        0.90286    0.77473    0.57106    1.000
    N5591    N        0.78352    0.77833    0.64269    1.000
    Si5592   Si       0.78232    0.82337    0.65227    1.000
    Si5593   Si       0.83888    0.80467    0.70626    1.000
    N5594    N        0.80768    0.82974    0.68687    1.000
    N5595    N        0.82289    0.79353    0.74573    1.000
    N5596    N        0.95105    0.83101    0.70666    1.000
    N5597    N        0.87462    0.82522    0.71812    1.000
    Si5598   Si       0.95583    0.78989    0.71802    1.000
    N5599    N        0.95881    0.81599    0.63562    1.000
    Si5600   Si       0.96187    0.77452    0.64703    1.000
    N5601    N        0.83122    0.81171    0.81076    1.000
    Si5602   Si       0.78514    0.78225    0.76375    1.000
    N5603    N        0.77085    0.82180    0.78071    1.000
    N5604    N        0.80453    0.78147    0.86732    1.000
    Si5605   Si       0.76530    0.80153    0.86751    1.000
    Si5606   Si       0.84363    0.82576    0.76555    1.000
    N5607    N        0.98437    0.81139    0.82966    1.000
    Si5608   Si       0.91857    0.81219    0.77858    1.000
    N5609    N        0.90953    0.78971    0.81701    1.000
    Si5610   Si       0.95086    0.78240    0.83947    1.000
    Si5611   Si       0.87368    0.81542    0.82472    1.000
    N5612    N        0.87016    0.80173    0.86592    1.000
    N5613    N        0.93288    0.77947    0.75463    1.000
    N5614    N        0.88150    0.83364    0.78297    1.000
    Si5615   Si       0.84025    0.80288    0.89593    1.000
    N5616    N        0.76682    0.80136    0.96675    1.000
    N5617    N        0.83626    0.80359    0.97820    1.000
    Si5618   Si       0.79869    0.81542    0.99258    1.000
    Si5619   Si       0.74716    0.82999    0.94014    1.000
    Si5620   Si       0.85760    0.77652    0.95256    1.000
    Si5621   Si       0.90364    0.78588    0.89408    1.000
    Si5622   Si       0.96724    0.78384    0.90320    1.000
    N5623    N        0.98682    0.81653    0.92453    1.000
    N5624    N        0.93673    0.80814    0.87585    1.000
    N5625    N        0.87964    0.80414    0.92798    1.000
    Si5626   Si       0.77176    0.87873    0.01316    1.000
    N5627    N        0.79161    0.84377    0.07931    1.000
    N5628    N        0.84644    0.84580    0.03732    1.000
    Si5629   Si       0.78833    0.88696    0.08332    1.000
    N5630    N        0.86145    0.84279    0.10180    1.000
    N5631    N        0.74263    0.85070    0.02898    1.000
    Si5632   Si       0.86014    0.88495    0.10449    1.000
    Si5633   Si       0.92208    0.88066    0.06775    1.000
    N5634    N        0.92065    0.85136    0.03436    1.000
    N5635    N        0.93020    0.84541    0.09698    1.000
    N5636    N        0.97978    0.84399    0.00559    1.000
    Si5637   Si       0.96776    0.85384    0.11974    1.000
    Si5638   Si       0.94218    0.86417    0.99899    1.000
    N5639    N        0.79891    0.88432    0.16988    1.000
    Si5640   Si       0.76966    0.85538    0.23815    1.000
    N5641    N        0.80592    0.83920    0.22012    1.000
    Si5642   Si       0.79747    0.84182    0.17613    1.000
    N5643    N        0.75304    0.89091    0.21960    1.000
    Si5644   Si       0.93577    0.88079    0.23594    1.000
    N5645    N        0.91841    0.86592    0.19846    1.000
    Si5646   Si       0.77564    0.86259    0.31667    1.000
    N5647    N        0.77744    0.87673    0.27660    1.000
    N5648    N        0.80748    0.88418    0.33743    1.000
    N5649    N        0.86543    0.83813    0.26542    1.000
    N5650    N        0.74218    0.87868    0.33511    1.000
    Si5651   Si       0.88068    0.87144    0.29238    1.000
    N5652    N        0.87603    0.88001    0.33593    1.000
    Si5653   Si       0.95067    0.84775    0.30189    1.000
    N5654    N        0.95438    0.84716    0.25946    1.000
    N5655    N        0.96070    0.88706    0.31502    1.000
    Si5656   Si       0.88251    0.83785    0.34880    1.000
    N5657    N        0.90926    0.83830    0.30841    1.000
    Si5658   Si       0.81746    0.87273    0.38024    1.000
    N5659    N        0.77929    0.86378    0.39771    1.000
    Si5660   Si       0.78516    0.84747    0.43655    1.000
    N5661    N        0.79342    0.87334    0.46998    1.000
    Si5662   Si       0.81619    0.84342    0.49198    1.000
    N5663    N        0.84217    0.83444    0.38124    1.000
    Si5664   Si       0.74171    0.86082    0.37596    1.000
    N5665    N        0.88181    0.85963    0.43672    1.000
    Si5666   Si       0.91085    0.87346    0.40600    1.000
    Si5667   Si       0.88088    0.87880    0.47388    1.000
    N5668    N        0.91219    0.83580    0.38369    1.000
    Si5669   Si       0.96273    0.84289    0.45289    1.000
    N5670    N        0.94869    0.87627    0.42906    1.000
    N5671    N        0.96689    0.85339    0.49445    1.000
    N5672    N        0.80180    0.85429    0.53441    1.000
    N5673    N        0.75233    0.87485    0.57219    1.000
    Si5674   Si       0.78063    0.88374    0.60534    1.000
    Si5675   Si       0.76011    0.84073    0.54804    1.000
    N5676    N        0.79946    0.84670    0.61955    1.000
    N5677    N        0.86130    0.88626    0.55771    1.000
    N5678    N        0.85796    0.85238    0.50066    1.000
    Si5679   Si       0.87220    0.84957    0.54222    1.000
    Si5680   Si       0.94045    0.87456    0.52437    1.000
    N5681    N        0.91533    0.84443    0.54045    1.000
    N5682    N        0.75749    0.86977    0.72699    1.000
    Si5683   Si       0.79975    0.86427    0.71228    1.000
    N5684    N        0.83097    0.86186    0.74449    1.000
    N5685    N        0.74152    0.83138    0.66505    1.000
    N5686    N        0.86870    0.86294    0.62424    1.000
    Si5687   Si       0.95389    0.85955    0.74002    1.000
    Si5688   Si       0.96019    0.84647    0.66554    1.000
    Si5689   Si       0.87483    0.86790    0.72771    1.000
    Si5690   Si       0.89394    0.88846    0.64916    1.000
    N5691    N        0.93621    0.88302    0.65828    1.000
    N5692    N        0.87555    0.88912    0.68838    1.000
    N5693    N        0.91568    0.88221    0.74336    1.000
    N5694    N        0.81817    0.87755    0.80744    1.000
    Si5695   Si       0.79673    0.83933    0.81268    1.000
    N5696    N        0.77940    0.83905    0.85259    1.000
    N5697    N        0.94090    0.86942    0.83613    1.000
    Si5698   Si       0.97388    0.85242    0.81482    1.000
    N5699    N        0.95315    0.83840    0.77650    1.000
    N5700    N        0.80078    0.85866    0.99115    1.000
    N5701    N        0.76745    0.86706    0.92329    1.000
    N5702    N        0.83097    0.84438    0.89672    1.000
    Si5703   Si       0.79102    0.86204    0.88729    1.000
    Si5704   Si       0.86070    0.87566    0.89222    1.000
    Si5705   Si       0.84279    0.86744    0.99990    1.000
    N5706    N        0.90226    0.86165    0.90134    1.000
    Si5707   Si       0.93899    0.85142    0.87550    1.000
    Si5708   Si       0.89624    0.84225    0.94043    1.000
    N5709    N        0.93559    0.85179    0.95792    1.000
    N5710    N        0.87196    0.86893    0.96671    1.000
    N5711    N        0.96772    0.87592    0.89644    1.000
    Si5712   Si       0.97630    0.85719    0.93597    1.000
    N5713    N        0.78879    0.90461    0.04389    1.000
    Si5714   Si       0.81630    0.93374    0.02596    1.000
    N5715    N        0.81971    0.90503    0.10557    1.000
    N5716    N        0.74544    0.89554    0.09189    1.000
    N5717    N        0.88579    0.90378    0.07629    1.000
    Si5718   Si       0.97690    0.91765    0.03712    1.000
    N5719    N        0.95948    0.89999    0.07214    1.000
    N5720    N        0.94656    0.90762    0.00425    1.000
    Si5721   Si       0.97581    0.92055    0.10803    1.000
    Si5722   Si       0.87994    0.94771    0.06997    1.000
    Si5723   Si       0.92478    0.94735    0.00077    1.000
    Si5724   Si       0.78285    0.92035    0.19440    1.000
    Si5725   Si       0.82618    0.90981    0.15013    1.000
    N5726    N        0.81155    0.94616    0.17019    1.000
    N5727    N        0.74464    0.93370    0.17351    1.000
    N5728    N        0.78090    0.94645    0.23177    1.000
    N5729    N        0.86642    0.89339    0.14662    1.000
    N5730    N        0.96911    0.89279    0.14041    1.000
    N5731    N        0.92131    0.92895    0.16889    1.000
    Si5732   Si       0.89201    0.89813    0.18117    1.000
    N5733    N        0.96565    0.90857    0.22094    1.000
    Si5734   Si       0.96268    0.91569    0.17783    1.000
    N5735    N        0.86841    0.91394    0.21289    1.000
    Si5736   Si       0.82655    0.91711    0.31414    1.000
    Si5737   Si       0.76705    0.91648    0.25989    1.000
    N5738    N        0.79466    0.93655    0.29171    1.000
    N5739    N        0.85368    0.94278    0.33662    1.000
    N5740    N        0.85087    0.90199    0.28128    1.000
    Si5741   Si       0.87348    0.91382    0.36368    1.000
    Si5742   Si       0.94001    0.92033    0.29777    1.000
    N5743    N        0.97785    0.93586    0.35418    1.000
    N5744    N        0.97637    0.94235    0.28410    1.000
    N5745    N        0.91693    0.94364    0.32434    1.000
    Si5746   Si       0.87488    0.92291    0.25376    1.000
    Si5747   Si       0.93501    0.94148    0.36353    1.000
    N5748    N        0.91231    0.90166    0.26835    1.000
    Si5749   Si       0.79191    0.91663    0.47917    1.000
    Si5750   Si       0.84695    0.93449    0.42620    1.000
    N5751    N        0.84188    0.90458    0.39368    1.000
    N5752    N        0.80759    0.93680    0.44465    1.000
    N5753    N        0.75757    0.94410    0.48535    1.000
    N5754    N        0.75124    0.94824    0.40674    1.000
    N5755    N        0.91300    0.89832    0.49886    1.000
    Si5756   Si       0.90122    0.94057    0.48749    1.000
    N5757    N        0.91048    0.91126    0.38509    1.000
    N5758    N        0.87128    0.92087    0.45933    1.000
    N5759    N        0.81415    0.90801    0.58930    1.000
    N5760    N        0.81471    0.92385    0.51633    1.000
    Si5761   Si       0.85549    0.89844    0.60073    1.000
    Si5762   Si       0.81970    0.89416    0.54596    1.000
    N5763    N        0.96293    0.90015    0.55244    1.000
    Si5764   Si       0.95603    0.94341    0.55389    1.000
    N5765    N        0.75673    0.93738    0.69454    1.000
    Si5766   Si       0.75792    0.91364    0.73041    1.000
    N5767    N        0.81021    0.90259    0.69052    1.000
    N5768    N        0.76512    0.91471    0.63042    1.000
    Si5769   Si       0.84780    0.92187    0.70477    1.000
    Si5770   Si       0.78818    0.93094    0.66494    1.000
    N5771    N        0.85995    0.91578    0.74745    1.000
    N5772    N        0.97506    0.93360    0.70659    1.000
    Si5773   Si       0.95940    0.91926    0.66749    1.000
    N5774    N        0.88672    0.92196    0.62131    1.000
    Si5775   Si       0.83189    0.90275    0.83825    1.000
    N5776    N        0.79285    0.92341    0.75467    1.000
    Si5777   Si       0.82481    0.89791    0.76871    1.000
    N5778    N        0.84129    0.94290    0.82528    1.000
    N5779    N        0.80260    0.89968    0.87127    1.000
    Si5780   Si       0.91028    0.90271    0.83759    1.000
    N5781    N        0.90524    0.92649    0.80132    1.000
    Si5782   Si       0.90331    0.91994    0.75770    1.000
    N5783    N        0.92845    0.92835    0.86813    1.000
    N5784    N        0.99512    0.93636    0.85141    1.000
    N5785    N        0.87151    0.88819    0.85155    1.000
    N5786    N        0.74808    0.90143    0.98569    1.000
    Si5787   Si       0.75015    0.90049    0.94367    1.000
    N5788    N        0.85214    0.90877    0.91959    1.000
    Si5789   Si       0.77998    0.93066    0.89181    1.000
    N5790    N        0.77190    0.94020    0.93322    1.000
    N5791    N        0.84060    0.91326    0.99704    1.000
    N5792    N        0.74158    0.93334    0.87203    1.000
    Si5793   Si       0.86559    0.91159    0.96080    1.000
    N5794    N        0.98280    0.93950    0.92195    1.000
    N5795    N        0.89680    0.94386    0.96564    1.000
    Si5796   Si       0.96941    0.91795    0.88316    1.000
    Si5797   Si       0.76964    0.99366    0.03140    1.000
    N5798    N        0.75959    0.97268    0.07016    1.000
    Si5799   Si       0.83667    0.99910    0.04234    1.000
    N5800    N        0.79512    0.96725    0.00646    1.000
    N5801    N        0.81716    0.98878    0.11447    1.000
    Si5802   Si       0.85928    0.00268    0.10883    1.000
    Si5803   Si       0.78325    0.00292    0.09401    1.000
    N5804    N        0.84231    0.95604    0.05229    1.000
    N5805    N        0.88142    0.96509    0.10967    1.000
    Si5806   Si       0.94180    0.97362    0.07187    1.000
    N5807    N        0.97483    0.96028    0.04676    1.000
    N5808    N        0.91167    0.95864    0.04201    1.000
    Si5809   Si       0.97923    0.99068    0.01684    1.000
    N5810    N        0.94748    0.95302    0.11036    1.000
    Si5811   Si       0.79908    0.98387    0.15317    1.000
    N5812    N        0.75724    0.98799    0.13622    1.000
    N5813    N        0.91559    0.00152    0.15449    1.000
    Si5814   Si       0.91467    0.95989    0.13932    1.000
    N5815    N        0.87209    0.00309    0.20671    1.000
    Si5816   Si       0.79233    0.97300    0.26649    1.000
    N5817    N        0.75618    0.98858    0.28552    1.000
    N5818    N        0.82200    0.00455    0.25983    1.000
    N5819    N        0.76751    0.00469    0.35550    1.000
    Si5820   Si       0.86469    0.00004    0.24863    1.000
    N5821    N        0.97513    0.99740    0.32899    1.000
    N5822    N        0.87797    0.96310    0.26901    1.000
    Si5823   Si       0.88201    0.96728    0.31216    1.000
    N5824    N        0.88591    0.00689    0.32840    1.000
    Si5825   Si       0.96827    0.00397    0.37054    1.000
    Si5826   Si       0.77903    0.96973    0.43407    1.000
    N5827    N        0.80173    0.00166    0.41448    1.000
    N5828    N        0.74707    0.99746    0.45079    1.000
    N5829    N        0.86271    0.97129    0.41283    1.000
    N5830    N        0.93364    0.97939    0.38680    1.000
    N5831    N        0.92219    0.96689    0.45677    1.000
    Si5832   Si       0.95697    0.97703    0.48081    1.000
    Si5833   Si       0.90544    0.98339    0.42056    1.000
    N5834    N        0.83473    0.97211    0.57020    1.000
    N5835    N        0.76931    0.96671    0.58795    1.000
    Si5836   Si       0.83228    0.96249    0.52760    1.000
    Si5837   Si       0.74840    0.00311    0.57307    1.000
    N5838    N        0.81743    0.99496    0.50484    1.000
    Si5839   Si       0.85563    0.00786    0.58458    1.000
    Si5840   Si       0.80748    0.95156    0.59669    1.000
    Si5841   Si       0.74763    0.98512    0.49626    1.000
    Si5842   Si       0.90522    0.97804    0.54178    1.000
    N5843    N        0.93908    0.95693    0.51629    1.000
    Si5844   Si       0.90804    0.95879    0.61842    1.000
    N5845    N        0.87502    0.96070    0.51640    1.000
    N5846    N        0.92515    0.96074    0.57827    1.000
    N5847    N        0.98817    0.97339    0.56031    1.000
    N5848    N        0.87694    0.98940    0.62137    1.000
    Si5849   Si       0.84878    0.98192    0.65579    1.000
    N5850    N        0.86185    0.96286    0.69372    1.000
    N5851    N        0.81664    0.95798    0.63987    1.000
    N5852    N        0.94772    0.00140    0.69274    1.000
    Si5853   Si       0.95496    0.97090    0.72069    1.000
    N5854    N        0.91688    0.95627    0.73996    1.000
    N5855    N        0.93953    0.95249    0.64827    1.000
    Si5856   Si       0.88170    0.98107    0.73324    1.000
    Si5857   Si       0.96192    0.99154    0.65396    1.000
    Si5858   Si       0.81104    0.97179    0.83808    1.000
    N5859    N        0.78418    0.99514    0.75755    1.000
    N5860    N        0.77415    0.95913    0.81672    1.000
    Si5861   Si       0.76962    0.95608    0.77414    1.000
    N5862    N        0.86079    0.98401    0.77159    1.000
    Si5863   Si       0.82353    0.00672    0.77680    1.000
    Si5864   Si       0.87745    0.96159    0.80610    1.000
    N5865    N        0.89419    0.98987    0.83404    1.000
    N5866    N        0.95732    0.99385    0.85645    1.000
    Si5867   Si       0.91588    0.97328    0.87336    1.000
    N5868    N        0.98136    0.99050    0.74963    1.000
    N5869    N        0.77956    0.00873    0.95468    1.000
    N5870    N        0.80860    0.96339    0.88133    1.000
    N5871    N        0.84059    0.96665    0.94564    1.000
    Si5872   Si       0.75024    0.97413    0.95132    1.000
    Si5873   Si       0.81458    0.98869    0.97251    1.000
    Si5874   Si       0.83951    0.94825    0.90634    1.000
    N5875    N        0.92939    0.98730    0.92042    1.000
    N5876    N        0.87711    0.96581    0.89464    1.000
    N5877    N        0.95484    0.97411    0.98469    1.000
    Si5878   Si       0.88677    0.97599    0.93643    1.000
    Si5879   Si       0.96500    0.97371    0.94229    1.000
