# CIF file generated by openbabel 3.1.1, see https://openbabel.org
data_I
_chemical_name_common '3.01-35.aims'
_cell_length_a 39.873
_cell_length_b 39.873
_cell_length_c 39.873
_cell_angle_alpha 90
_cell_angle_beta 90
_cell_angle_gamma 90
loop_
    _atom_site_label
    _atom_site_type_symbol
    _atom_site_fract_x
    _atom_site_fract_y
    _atom_site_fract_z
    _atom_site_occupancy
    Si0      Si       0.06571    0.03401    0.02689    1.000
    N1       N        0.10862    0.03405    0.01493    1.000
    N2       N        0.01116    0.01653    0.10301    1.000
    Si3      Si       0.05352    0.01900    0.09911    1.000
    N4       N        0.03502    0.01500    0.00123    1.000
    Si5      Si       0.19196    0.02877    0.02320    1.000
    N6       N        0.18256    0.05309    0.10493    1.000
    Si7      Si       0.20333    0.01591    0.09847    1.000
    N8       N        0.21416    0.01237    0.05724    1.000
    N9       N        0.22781    0.04259    0.00429    1.000
    N10      N        0.16616    0.06123    0.03781    1.000
    N11      N        0.24098    0.02115    0.12179    1.000
    Si12     Si       0.13563    0.06563    0.00715    1.000
    N13      N        0.07145    0.04787    0.12410    1.000
    Si14     Si       0.06396    0.02132    0.15941    1.000
    N15      N        0.09854    0.02350    0.18550    1.000
    Si16     Si       0.99619    0.02423    0.14213    1.000
    N17      N        0.02311    0.01604    0.17731    1.000
    Si18     Si       0.11564    0.06367    0.18508    1.000
    N19      N        0.18071    0.02101    0.17085    1.000
    Si20     Si       0.17719    0.05726    0.14670    1.000
    N21      N        0.14543    0.06107    0.21770    1.000
    Si22     Si       0.17274    0.02618    0.21383    1.000
    N23      N        0.20356    0.02873    0.24298    1.000
    Si24     Si       0.06909    0.03069    0.28835    1.000
    N25      N        0.06017    0.05736    0.25441    1.000
    Si26     Si       0.01759    0.06893    0.24752    1.000
    N27      N        0.06999    0.06264    0.32000    1.000
    N28      N        0.11816    0.03324    0.36121    1.000
    N29      N        0.18518    0.06258    0.34120    1.000
    N30      N        0.22959    0.04015    0.29647    1.000
    Si31     Si       0.19271    0.05317    0.27735    1.000
    Si32     Si       0.15408    0.03058    0.33713    1.000
    N33      N        0.15663    0.03294    0.29144    1.000
    Si34     Si       0.22103    0.04996    0.36308    1.000
    N35      N        0.23253    0.00716    0.36391    1.000
    Si36     Si       0.99175    0.03499    0.41589    1.000
    Si37     Si       0.05410    0.04416    0.46760    1.000
    N38      N        0.02125    0.02979    0.44415    1.000
    N39      N        0.00172    0.06322    0.38246    1.000
    Si40     Si       0.23503    0.06309    0.43316    1.000
    N41      N        0.21701    0.02548    0.45504    1.000
    Si42     Si       0.17954    0.02441    0.42834    1.000
    N43      N        0.14221    0.03239    0.44807    1.000
    N44      N        0.19930    0.05441    0.40417    1.000
    N45      N        0.08779    0.04041    0.55507    1.000
    Si46     Si       0.04506    0.04769    0.55028    1.000
    N47      N        0.03414    0.04681    0.50846    1.000
    Si48     Si       0.00570    0.01343    0.51437    1.000
    N49      N        0.01836    0.01233    0.55775    1.000
    Si50     Si       0.12372    0.05389    0.53341    1.000
    N51      N        0.12763    0.02262    0.60794    1.000
    N52      N        0.21070    0.04232    0.52238    1.000
    Si53     Si       0.22948    0.05480    0.59735    1.000
    N54      N        0.13515    0.01573    0.51371    1.000
    Si55     Si       0.05045    0.01427    0.64852    1.000
    N56      N        0.05274    0.03950    0.72368    1.000
    Si57     Si       0.01866    0.01636    0.71246    1.000
    N58      N        0.08806    0.02633    0.66590    1.000
    Si59     Si       0.09236    0.03146    0.71146    1.000
    N60      N        0.02626    0.05185    0.64488    1.000
    Si61     Si       0.11380    0.04742    0.63992    1.000
    N62      N        0.17670    0.03140    0.69517    1.000
    N63      N        0.19872    0.03668    0.62236    1.000
    N64      N        0.11772    0.06757    0.72556    1.000
    Si65     Si       0.20037    0.01244    0.65966    1.000
    Si66     Si       0.05991    0.04423    0.85318    1.000
    Si67     Si       0.00381    0.04949    0.80305    1.000
    N68      N        0.04302    0.06110    0.81300    1.000
    N69      N        0.00188    0.06057    0.76024    1.000
    N70      N        0.20940    0.02551    0.81910    1.000
    Si71     Si       0.23384    0.02549    0.78257    1.000
    Si72     Si       0.19802    0.06684    0.82512    1.000
    N73      N        0.21314    0.03807    0.74790    1.000
    Si74     Si       0.02671    0.05442    0.98153    1.000
    N75      N        0.08083    0.02331    0.88979    1.000
    N76      N        0.08187    0.02351    0.94924    1.000
    Si77     Si       0.05189    0.04174    0.92106    1.000
    N78      N        0.01454    0.02041    0.92826    1.000
    N79      N        0.03264    0.06427    0.88370    1.000
    Si80     Si       0.23335    0.05476    0.96338    1.000
    Si81     Si       0.11380    0.02771    0.91756    1.000
    N82      N        0.13348    0.06375    0.90617    1.000
    N83      N        0.19694    0.04748    0.94198    1.000
    N84      N        0.01920    0.08936    0.08648    1.000
    Si85     Si       0.01119    0.08009    0.04571    1.000
    Si86     Si       0.06539    0.10928    0.01228    1.000
    N87      N        0.10803    0.10204    0.01277    1.000
    Si88     Si       0.05285    0.11698    0.09713    1.000
    Si89     Si       0.11007    0.11593    0.05459    1.000
    Si90     Si       0.10442    0.07946    0.11996    1.000
    N91      N        0.04522    0.07265    0.01792    1.000
    N92      N        0.98936    0.11405    0.02803    1.000
    N93      N        0.12375    0.08594    0.08182    1.000
    Si94     Si       0.16754    0.08069    0.07484    1.000
    N95      N        0.18824    0.11746    0.08183    1.000
    N96      N        0.07703    0.11349    0.13160    1.000
    Si97     Si       0.08019    0.09299    0.23946    1.000
    N98      N        0.00586    0.08595    0.20989    1.000
    N99      N        0.08679    0.09312    0.19599    1.000
    N100     N        0.04742    0.12116    0.24190    1.000
    Si101    Si       0.07199    0.12699    0.17263    1.000
    Si102    Si       0.15116    0.09880    0.23880    1.000
    N103     N        0.13701    0.08117    0.15056    1.000
    Si104    Si       0.16245    0.11604    0.16206    1.000
    Si105    Si       0.23616    0.11359    0.15731    1.000
    N106     N        0.19905    0.09288    0.16104    1.000
    N107     N        0.00969    0.08769    0.28685    1.000
    Si108    Si       0.04345    0.09656    0.31265    1.000
    N109     N        0.02951    0.11853    0.34806    1.000
    Si110    Si       0.10051    0.07206    0.34942    1.000
    N111     N        0.11418    0.10954    0.26035    1.000
    N112     N        0.18520    0.09342    0.26396    1.000
    N113     N        0.12878    0.10087    0.33279    1.000
    Si114    Si       0.17126    0.10246    0.33937    1.000
    Si115    Si       0.21599    0.11968    0.27813    1.000
    Si116    Si       0.03042    0.09522    0.38376    1.000
    Si117    Si       0.07826    0.10426    0.42284    1.000
    N118     N        0.07788    0.08831    0.38204    1.000
    N119     N        0.03395    0.11508    0.42054    1.000
    N120     N        0.08187    0.06964    0.44633    1.000
    Si121    Si       0.12465    0.06927    0.46019    1.000
    N122     N        0.22083    0.10427    0.43399    1.000
    N123     N        0.14640    0.09873    0.43804    1.000
    N124     N        0.18001    0.11664    0.37934    1.000
    Si125    Si       0.18170    0.09238    0.41382    1.000
    N126     N        0.03386    0.07993    0.57573    1.000
    Si127    Si       0.00532    0.10872    0.55857    1.000
    Si128    Si       0.04490    0.07987    0.61814    1.000
    Si129    Si       0.11410    0.12183    0.51281    1.000
    N130     N        0.11454    0.08153    0.49950    1.000
    N131     N        0.14563    0.11899    0.61605    1.000
    Si132    Si       0.14817    0.11455    0.57334    1.000
    Si133    Si       0.19527    0.08130    0.53627    1.000
    N134     N        0.21237    0.08782    0.57715    1.000
    N135     N        0.20878    0.10992    0.50622    1.000
    N136     N        0.15443    0.07748    0.54988    1.000
    N137     N        0.08832    0.07853    0.62385    1.000
    Si138    Si       0.00379    0.07823    0.67091    1.000
    Si139    Si       0.03731    0.07704    0.73851    1.000
    N140     N        0.03206    0.09833    0.70030    1.000
    N141     N        0.02991    0.11623    0.63896    1.000
    Si142    Si       0.11642    0.10709    0.64467    1.000
    Si143    Si       0.15478    0.06816    0.70182    1.000
    N144     N        0.18219    0.09787    0.71605    1.000
    N145     N        0.13756    0.07459    0.66307    1.000
    Si146    Si       0.20703    0.08333    0.74553    1.000
    Si147    Si       0.07618    0.09366    0.81220    1.000
    N148     N        0.06076    0.10308    0.76523    1.000
    N149     N        0.09121    0.07688    0.84894    1.000
    Si150    Si       0.10474    0.09997    0.75089    1.000
    N151     N        0.11676    0.09318    0.79229    1.000
    N152     N        0.23349    0.08179    0.84507    1.000
    N153     N        0.19136    0.08711    0.78651    1.000
    Si154    Si       0.15552    0.10553    0.80454    1.000
    N155     N        0.16117    0.08168    0.84146    1.000
    Si156    Si       0.12680    0.08624    0.86926    1.000
    Si157    Si       0.23319    0.12439    0.86020    1.000
    Si158    Si       0.04464    0.11993    0.94248    1.000
    N159     N        0.04525    0.07717    0.95027    1.000
    Si160    Si       0.00307    0.09727    0.89487    1.000
    N161     N        0.23714    0.09869    0.96555    1.000
    Si162    Si       0.12802    0.12025    0.97580    1.000
    N163     N        0.14573    0.08108    0.96832    1.000
    N164     N        0.18656    0.11327    0.91985    1.000
    Si165    Si       0.16729    0.07537    0.93158    1.000
    N166     N        0.03378    0.15654    0.09948    1.000
    Si167    Si       0.04957    0.16603    0.05882    1.000
    N168     N        0.01822    0.17729    0.03342    1.000
    Si169    Si       0.00256    0.14821    0.00456    1.000
    N170     N        0.09719    0.17322    0.01042    1.000
    N171     N        0.06643    0.12445    0.05614    1.000
    Si172    Si       0.16232    0.15161    0.09534    1.000
    N173     N        0.13058    0.15113    0.06792    1.000
    Si174    Si       0.22129    0.14405    0.09037    1.000
    N175     N        0.19378    0.17971    0.08808    1.000
    N176     N        0.21115    0.18566    0.02074    1.000
    N177     N        0.03015    0.13877    0.17256    1.000
    Si178    Si       0.01256    0.15710    0.13713    1.000
    N179     N        0.09245    0.16116    0.19294    1.000
    N180     N        0.02407    0.17747    0.22252    1.000
    Si181    Si       0.01555    0.13041    0.21413    1.000
    Si182    Si       0.99110    0.17775    0.25068    1.000
    N183     N        0.15651    0.15346    0.13817    1.000
    Si184    Si       0.13514    0.16536    0.20465    1.000
    N185     N        0.23192    0.14807    0.13191    1.000
    N186     N        0.15406    0.12766    0.20383    1.000
    Si187    Si       0.05311    0.15965    0.34055    1.000
    Si188    Si       0.04970    0.15256    0.27176    1.000
    N189     N        0.01280    0.16813    0.28727    1.000
    N190     N        0.06974    0.13497    0.30616    1.000
    Si191    Si       0.11190    0.12677    0.29985    1.000
    N192     N        0.01892    0.18425    0.34779    1.000
    Si193    Si       0.17153    0.16947    0.31647    1.000
    N194     N        0.13086    0.16525    0.30162    1.000
    N195     N        0.19167    0.13322    0.31250    1.000
    N196     N        0.16061    0.17643    0.35801    1.000
    N197     N        0.22155    0.15488    0.25077    1.000
    N198     N        0.00630    0.18478    0.41422    1.000
    N199     N        0.02613    0.16295    0.46962    1.000
    Si200    Si       0.00599    0.14610    0.43315    1.000
    Si201    Si       0.07213    0.16594    0.46511    1.000
    N202     N        0.09726    0.13985    0.44027    1.000
    N203     N        0.19470    0.18618    0.49362    1.000
    N204     N        0.16539    0.16785    0.42600    1.000
    Si205    Si       0.18498    0.15782    0.38988    1.000
    Si206    Si       0.14184    0.13905    0.45039    1.000
    N207     N        0.14657    0.14365    0.49436    1.000
    N208     N        0.22641    0.16381    0.39766    1.000
    Si209    Si       0.07165    0.14936    0.54414    1.000
    Si210    Si       0.00832    0.15897    0.50797    1.000
    N211     N        0.03117    0.13599    0.53581    1.000
    N212     N        0.08475    0.15165    0.50341    1.000
    N213     N        0.02198    0.18133    0.60436    1.000
    Si214    Si       0.99260    0.18164    0.57338    1.000
    N215     N        0.10845    0.12769    0.55549    1.000
    N216     N        0.18107    0.14422    0.55848    1.000
    Si217    Si       0.20344    0.15179    0.51905    1.000
    Si218    Si       0.21949    0.12920    0.58407    1.000
    N219     N        0.20762    0.14783    0.62054    1.000
    Si220    Si       0.15289    0.18717    0.49827    1.000
    Si221    Si       0.00296    0.14785    0.62498    1.000
    Si222    Si       0.01265    0.17206    0.71562    1.000
    N223     N        0.03810    0.16880    0.67997    1.000
    N224     N        0.09259    0.13075    0.67029    1.000
    Si225    Si       0.05025    0.12818    0.67421    1.000
    N226     N        0.15695    0.15179    0.67660    1.000
    Si227    Si       0.16623    0.15249    0.63362    1.000
    N228     N        0.22574    0.14713    0.68871    1.000
    N229     N        0.18133    0.16731    0.73856    1.000
    N230     N        0.12045    0.13858    0.73719    1.000
    Si231    Si       0.23398    0.16927    0.65275    1.000
    Si232    Si       0.18669    0.13828    0.70545    1.000
    Si233    Si       0.11888    0.15421    0.69602    1.000
    Si234    Si       0.04091    0.14717    0.86216    1.000
    Si235    Si       0.03454    0.13522    0.78198    1.000
    N236     N        0.03657    0.16480    0.75104    1.000
    N237     N        0.05462    0.13427    0.82276    1.000
    N238     N        0.99101    0.12556    0.78359    1.000
    N239     N        0.00213    0.12634    0.86045    1.000
    Si240    Si       0.17730    0.17060    0.82833    1.000
    N241     N        0.15602    0.14843    0.80088    1.000
    N242     N        0.19420    0.14404    0.85813    1.000
    Si243    Si       0.14532    0.16461    0.76223    1.000
    Si244    Si       0.07305    0.16912    0.97544    1.000
    Si245    Si       0.10195    0.15124    0.90958    1.000
    N246     N        0.10111    0.14119    0.95073    1.000
    N247     N        0.04314    0.13863    0.98436    1.000
    N248     N        0.06029    0.13778    0.90188    1.000
    N249     N        0.00227    0.12319    0.92886    1.000
    Si250    Si       0.22180    0.12789    0.93757    1.000
    Si251    Si       0.16988    0.14173    0.89425    1.000
    N252     N        0.21907    0.16773    0.95259    1.000
    Si253    Si       0.19036    0.17600    0.98476    1.000
    N254     N        0.16243    0.14457    0.98567    1.000
    N255     N        0.16972    0.18039    0.91009    1.000
    N256     N        0.12919    0.12835    0.88523    1.000
    Si257    Si       0.00780    0.21872    0.03027    1.000
    N258     N        0.07783    0.19663    0.07031    1.000
    Si259    Si       0.05636    0.22838    0.08994    1.000
    N260     N        0.01860    0.23506    0.06980    1.000
    Si261    Si       0.11510    0.18562    0.04803    1.000
    N262     N        0.02758    0.24200    0.00011    1.000
    Si263    Si       0.18720    0.20372    0.05099    1.000
    N264     N        0.14821    0.21227    0.03454    1.000
    Si265    Si       0.21514    0.21477    0.10448    1.000
    N266     N        0.13517    0.21520    0.10945    1.000
    N267     N        0.20284    0.23734    0.06958    1.000
    Si268    Si       0.14817    0.23499    0.99698    1.000
    N269     N        0.98976    0.19539    0.14595    1.000
    Si270    Si       0.06650    0.18722    0.21778    1.000
    N271     N        0.04792    0.22820    0.13450    1.000
    N272     N        0.07001    0.22738    0.20243    1.000
    Si273    Si       0.00888    0.23359    0.15064    1.000
    N274     N        0.15082    0.18551    0.24145    1.000
    N275     N        0.14635    0.20089    0.18275    1.000
    Si276    Si       0.15855    0.19752    0.14140    1.000
    N277     N        0.19525    0.22333    0.14103    1.000
    N278     N        0.20252    0.21808    0.22488    1.000
    Si279    Si       0.15893    0.22457    0.21704    1.000
    Si280    Si       0.23864    0.22872    0.20487    1.000
    Si281    Si       0.04864    0.22479    0.35369    1.000
    N282     N        0.00386    0.23930    0.36714    1.000
    N283     N        0.08119    0.19211    0.35214    1.000
    N284     N        0.05616    0.24327    0.31525    1.000
    N285     N        0.07987    0.18108    0.25772    1.000
    N286     N        0.12120    0.23672    0.27010    1.000
    Si287    Si       0.19435    0.18884    0.25740    1.000
    Si288    Si       0.12016    0.19401    0.27075    1.000
    Si289    Si       0.12441    0.20174    0.35814    1.000
    N290     N        0.19148    0.20235    0.29828    1.000
    Si291    Si       0.21794    0.22385    0.32700    1.000
    N292     N        0.12831    0.23575    0.33315    1.000
    N293     N        0.19452    0.24316    0.36025    1.000
    Si294    Si       0.99002    0.19928    0.37785    1.000
    Si295    Si       0.02299    0.20288    0.45151    1.000
    N296     N        0.06461    0.20815    0.45759    1.000
    Si297    Si       0.09481    0.23586    0.46758    1.000
    N298     N        0.99446    0.22816    0.47025    1.000
    N299     N        0.12858    0.20876    0.46852    1.000
    N300     N        0.18752    0.23241    0.43510    1.000
    N301     N        0.12542    0.21974    0.39888    1.000
    Si302    Si       0.20578    0.22465    0.47468    1.000
    Si303    Si       0.15191    0.20866    0.43163    1.000
    Si304    Si       0.10185    0.21810    0.54387    1.000
    Si305    Si       0.05675    0.20580    0.59725    1.000
    N306     N        0.00244    0.19456    0.53309    1.000
    Si307    Si       0.99521    0.23502    0.51399    1.000
    N308     N        0.10633    0.24057    0.58136    1.000
    N309     N        0.07379    0.19036    0.56038    1.000
    N310     N        0.19963    0.22167    0.57168    1.000
    N311     N        0.14541    0.20614    0.53699    1.000
    Si312    Si       0.22468    0.23907    0.60362    1.000
    N313     N        0.15221    0.18612    0.60932    1.000
    Si314    Si       0.17288    0.18624    0.57083    1.000
    Si315    Si       0.12418    0.21886    0.61632    1.000
    Si316    Si       0.17184    0.24265    0.54496    1.000
    N317     N        0.10333    0.19477    0.69989    1.000
    N318     N        0.00744    0.21389    0.72739    1.000
    Si319    Si       0.06770    0.19895    0.67162    1.000
    Si320    Si       0.10748    0.22045    0.73567    1.000
    N321     N        0.08626    0.20134    0.63157    1.000
    N322     N        0.04599    0.23609    0.67361    1.000
    N323     N        0.06680    0.23454    0.74331    1.000
    Si324    Si       0.21663    0.19375    0.74326    1.000
    N325     N        0.22704    0.21271    0.63986    1.000
    Si326    Si       0.23026    0.23588    0.67620    1.000
    N327     N        0.23572    0.21312    0.70974    1.000
    Si328    Si       0.03797    0.20708    0.76043    1.000
    Si329    Si       0.04185    0.22220    0.83819    1.000
    N330     N        0.02431    0.21111    0.80022    1.000
    N331     N        0.08414    0.23225    0.82776    1.000
    N332     N        0.04141    0.19136    0.87009    1.000
    N333     N        0.12660    0.20281    0.77163    1.000
    Si334    Si       0.12673    0.22261    0.81290    1.000
    N335     N        0.14747    0.19855    0.84370    1.000
    N336     N        0.21045    0.19542    0.81184    1.000
    N337     N        0.19439    0.22958    0.76005    1.000
    Si338    Si       0.20493    0.23804    0.80263    1.000
    N339     N        0.06152    0.20302    0.94966    1.000
    Si340    Si       0.06492    0.20714    0.90429    1.000
    Si341    Si       0.06298    0.23796    0.97640    1.000
    N342     N        0.10726    0.19559    0.89970    1.000
    N343     N        0.10602    0.23988    0.98499    1.000
    N344     N        0.17861    0.24057    0.90558    1.000
    Si345    Si       0.14523    0.21201    0.88456    1.000
    Si346    Si       0.19478    0.20915    0.93262    1.000
    N347     N        0.23586    0.22630    0.92926    1.000
    N348     N        0.17774    0.21690    0.97245    1.000
    N349     N        0.08314    0.26205    0.08781    1.000
    Si350    Si       0.99772    0.26964    0.08553    1.000
    Si351    Si       0.06618    0.29865    0.06970    1.000
    Si352    Si       0.12024    0.25625    0.10883    1.000
    N353     N        0.14901    0.28550    0.09103    1.000
    Si354    Si       0.19173    0.27767    0.07875    1.000
    N355     N        0.21828    0.28218    0.11368    1.000
    N356     N        0.15133    0.28071    0.99927    1.000
    Si357    Si       0.07546    0.24816    0.16307    1.000
    Si358    Si       0.05158    0.26428    0.21800    1.000
    N359     N        0.05263    0.28351    0.17896    1.000
    N360     N        0.08350    0.28784    0.23891    1.000
    N361     N        0.11280    0.26621    0.15240    1.000
    N362     N        0.02209    0.25607    0.24799    1.000
    N363     N        0.14431    0.26388    0.21633    1.000
    Si364    Si       0.13613    0.28897    0.18166    1.000
    N365     N        0.17594    0.29680    0.16576    1.000
    Si366    Si       0.20418    0.26567    0.15089    1.000
    N367     N        0.23912    0.26147    0.17645    1.000
    Si368    Si       0.02692    0.26579    0.29089    1.000
    Si369    Si       0.09832    0.25350    0.30495    1.000
    N370     N        0.11473    0.29418    0.29620    1.000
    N371     N        0.23755    0.25905    0.30967    1.000
    Si372    Si       0.22390    0.30241    0.31455    1.000
    Si373    Si       0.15734    0.26679    0.34682    1.000
    N374     N        0.17966    0.29613    0.32165    1.000
    Si375    Si       0.12631    0.27968    0.25288    1.000
    Si376    Si       0.10420    0.25823    0.39751    1.000
    Si377    Si       0.02490    0.27513    0.39312    1.000
    N378     N        0.09597    0.26758    0.43929    1.000
    N379     N        0.06499    0.25634    0.37920    1.000
    N380     N        0.20424    0.29717    0.40365    1.000
    N381     N        0.13085    0.28680    0.37604    1.000
    Si382    Si       0.20638    0.25227    0.40203    1.000
    Si383    Si       0.06104    0.28125    0.51312    1.000
    Si384    Si       0.03200    0.27854    0.56926    1.000
    N385     N        0.02236    0.26524    0.52692    1.000
    N386     N        0.06458    0.29907    0.55375    1.000
    N387     N        0.99526    0.29329    0.58370    1.000
    N388     N        0.04095    0.24682    0.59919    1.000
    N389     N        0.08849    0.24621    0.51024    1.000
    Si390    Si       0.12748    0.27725    0.59098    1.000
    Si391    Si       0.21399    0.28863    0.51219    1.000
    N392     N        0.15507    0.27951    0.55801    1.000
    N393     N        0.20787    0.28049    0.61362    1.000
    N394     N        0.19044    0.24997    0.50597    1.000
    N395     N        0.23481    0.29408    0.55044    1.000
    Si396    Si       0.10230    0.29167    0.73898    1.000
    N397     N        0.07277    0.29049    0.70612    1.000
    Si398    Si       0.02636    0.25564    0.64031    1.000
    N399     N        0.01167    0.28005    0.72485    1.000
    Si400    Si       0.04680    0.25674    0.71271    1.000
    N401     N        0.03026    0.29842    0.64423    1.000
    Si402    Si       0.21036    0.29301    0.71336    1.000
    N403     N        0.19963    0.26549    0.68085    1.000
    Si404    Si       0.17763    0.27849    0.64582    1.000
    N405     N        0.14476    0.25531    0.62801    1.000
    N406     N        0.12890    0.25748    0.73352    1.000
    Si407    Si       0.08963    0.26071    0.86143    1.000
    N408     N        0.01349    0.25698    0.84256    1.000
    N409     N        0.06998    0.29586    0.84524    1.000
    Si410    Si       0.02448    0.29791    0.85087    1.000
    N411     N        0.08560    0.30053    0.77779    1.000
    Si412    Si       0.15937    0.28543    0.83786    1.000
    N413     N        0.15200    0.25920    0.80124    1.000
    Si414    Si       0.16495    0.26207    0.75927    1.000
    N415     N        0.20051    0.25730    0.84280    1.000
    N416     N        0.18430    0.29941    0.74767    1.000
    N417     N        0.13113    0.25644    0.86961    1.000
    N418     N        0.06171    0.24904    0.89286    1.000
    Si419    Si       0.00442    0.27553    0.98043    1.000
    Si420    Si       0.04056    0.27358    0.92107    1.000
    N421     N        0.06299    0.27816    0.95912    1.000
    N422     N        0.00334    0.25645    0.94066    1.000
    Si423    Si       0.11164    0.28185    0.97108    1.000
    Si424    Si       0.21961    0.24310    0.88645    1.000
    N425     N        0.12779    0.29172    0.93061    1.000
    N426     N        0.23657    0.28374    0.89005    1.000
    Si427    Si       0.15497    0.27496    0.90204    1.000
    N428     N        0.09282    0.33167    0.07853    1.000
    Si429    Si       0.02811    0.34281    0.04308    1.000
    Si430    Si       0.00631    0.33469    0.10888    1.000
    N431     N        0.02644    0.30201    0.08710    1.000
    N432     N        0.03863    0.36088    0.00221    1.000
    Si433    Si       0.07045    0.36082    0.10262    1.000
    N434     N        0.05544    0.30770    0.02839    1.000
    Si435    Si       0.12628    0.35774    0.99960    1.000
    Si436    Si       0.13389    0.32756    0.09188    1.000
    N437     N        0.15501    0.34240    0.02819    1.000
    Si438    Si       0.17797    0.30978    0.01059    1.000
    N439     N        0.20335    0.30295    0.04460    1.000
    Si440    Si       0.23996    0.31921    0.11670    1.000
    Si441    Si       0.24061    0.32513    0.04062    1.000
    N442     N        0.05023    0.34565    0.20743    1.000
    N443     N        0.07337    0.34615    0.14309    1.000
    Si444    Si       0.08481    0.32912    0.22722    1.000
    N445     N        0.00706    0.33798    0.15166    1.000
    Si446    Si       0.04535    0.32471    0.16998    1.000
    Si447    Si       0.11172    0.35321    0.16086    1.000
    N448     N        0.18473    0.35782    0.19104    1.000
    N449     N        0.21097    0.34826    0.12342    1.000
    N450     N        0.11621    0.32708    0.19512    1.000
    N451     N        0.14268    0.34538    0.13125    1.000
    Si452    Si       0.18142    0.33918    0.15233    1.000
    Si453    Si       0.16744    0.35510    0.23324    1.000
    Si454    Si       0.08087    0.32544    0.30202    1.000
    Si455    Si       0.01383    0.33879    0.30902    1.000
    N456     N        0.09129    0.34827    0.26503    1.000
    N457     N        0.09185    0.33993    0.34506    1.000
    N458     N        0.04165    0.30631    0.29897    1.000
    N459     N        0.99978    0.30360    0.36504    1.000
    Si460    Si       0.15132    0.32053    0.29825    1.000
    N461     N        0.15637    0.31893    0.25486    1.000
    N462     N        0.21887    0.35019    0.31854    1.000
    Si463    Si       0.23239    0.35397    0.27698    1.000
    N464     N        0.23302    0.31181    0.27023    1.000
    Si465    Si       0.99826    0.31649    0.43399    1.000
    N466     N        0.10418    0.33474    0.41991    1.000
    N467     N        0.06747    0.31396    0.48569    1.000
    N468     N        0.99425    0.32320    0.47598    1.000
    Si469    Si       0.07691    0.30710    0.44182    1.000
    N470     N        0.04058    0.30899    0.41790    1.000
    Si471    Si       0.00499    0.36254    0.48966    1.000
    Si472    Si       0.11731    0.32790    0.37783    1.000
    N473     N        0.16853    0.34820    0.44266    1.000
    N474     N        0.22418    0.35852    0.39210    1.000
    N475     N        0.23180    0.35706    0.46193    1.000
    N476     N        0.15712    0.34935    0.37636    1.000
    Si477    Si       0.19239    0.35144    0.47868    1.000
    Si478    Si       0.18646    0.33778    0.40486    1.000
    Si479    Si       0.12778    0.36435    0.44322    1.000
    Si480    Si       0.09396    0.33463    0.56455    1.000
    Si481    Si       0.07573    0.35437    0.49980    1.000
    Si482    Si       0.00192    0.31826    0.61871    1.000
    N483     N        0.01770    0.35375    0.60004    1.000
    N484     N        0.11211    0.31601    0.60039    1.000
    N485     N        0.06780    0.36158    0.54503    1.000
    N486     N        0.99942    0.36525    0.53279    1.000
    N487     N        0.18665    0.33781    0.57951    1.000
    Si488    Si       0.16529    0.31949    0.54613    1.000
    N489     N        0.18487    0.31862    0.50546    1.000
    N490     N        0.13036    0.34642    0.54289    1.000
    Si491    Si       0.22231    0.31537    0.58875    1.000
    Si492    Si       0.00588    0.32244    0.72794    1.000
    N493     N        0.03132    0.34276    0.69421    1.000
    N494     N        0.09413    0.33841    0.66332    1.000
    Si495    Si       0.05827    0.31605    0.67353    1.000
    Si496    Si       0.10958    0.35730    0.69968    1.000
    Si497    Si       0.18525    0.35288    0.66563    1.000
    N498     N        0.12521    0.32649    0.72744    1.000
    N499     N        0.16286    0.32127    0.64641    1.000
    N500     N        0.20205    0.33291    0.69999    1.000
    Si501    Si       0.16720    0.33913    0.72569    1.000
    Si502    Si       0.12426    0.33755    0.63298    1.000
    Si503    Si       0.09037    0.31924    0.81560    1.000
    N504     N        0.01356    0.32976    0.82300    1.000
    N505     N        0.02237    0.35226    0.75562    1.000
    N506     N        0.07432    0.35982    0.80807    1.000
    Si507    Si       0.03157    0.36291    0.79688    1.000
    Si508    Si       0.20099    0.32770    0.77904    1.000
    N509     N        0.12884    0.32052    0.83391    1.000
    N510     N        0.19006    0.31353    0.81753    1.000
    Si511    Si       0.15061    0.34323    0.86662    1.000
    N512     N        0.23827    0.34118    0.85014    1.000
    Si513    Si       0.21371    0.30364    0.85428    1.000
    Si514    Si       0.99845    0.32764    0.92304    1.000
    Si515    Si       0.05820    0.31970    0.98538    1.000
    N516     N        0.10057    0.32872    0.97688    1.000
    N517     N        0.01105    0.31796    0.96380    1.000
    N518     N        0.02257    0.30560    0.89603    1.000
    Si519    Si       0.99494    0.35589    0.98783    1.000
    N520     N        0.12013    0.35421    0.90187    1.000
    Si521    Si       0.23405    0.34769    0.96304    1.000
    N522     N        0.17312    0.30650    0.87774    1.000
    N523     N        0.20978    0.31843    0.98287    1.000
    Si524    Si       0.12531    0.33467    0.93929    1.000
    N525     N        0.15016    0.36421    0.96206    1.000
    N526     N        0.08492    0.40206    0.10360    1.000
    Si527    Si       0.01665    0.40487    0.07483    1.000
    Si528    Si       0.05821    0.39842    0.00687    1.000
    N529     N        0.10149    0.39303    0.00564    1.000
    N530     N        0.03146    0.36384    0.08333    1.000
    N531     N        0.04798    0.41542    0.04512    1.000
    N532     N        0.16866    0.40320    0.00933    1.000
    Si533    Si       0.20485    0.39051    0.10603    1.000
    N534     N        0.17116    0.39220    0.07796    1.000
    Si535    Si       0.18101    0.37436    0.03998    1.000
    N536     N        0.22591    0.36589    0.03436    1.000
    N537     N        0.23753    0.41254    0.08780    1.000
    Si538    Si       0.03534    0.38436    0.21862    1.000
    Si539    Si       0.10900    0.41043    0.21311    1.000
    N540     N        0.06974    0.40624    0.23492    1.000
    N541     N        0.00378    0.39738    0.19077    1.000
    N542     N        0.11470    0.39391    0.17376    1.000
    Si543    Si       0.10342    0.41751    0.13786    1.000
    Si544    Si       0.21068    0.39036    0.21142    1.000
    N545     N        0.13643    0.38575    0.23759    1.000
    N546     N        0.19163    0.41108    0.14079    1.000
    Si547    Si       0.02524    0.39751    0.33808    1.000
    Si548    Si       0.05319    0.39675    0.27801    1.000
    Si549    Si       0.08377    0.38388    0.33649    1.000
    N550     N        0.01311    0.38291    0.25711    1.000
    N551     N        0.09432    0.40921    0.29805    1.000
    N552     N        0.04940    0.36794    0.31146    1.000
    N553     N        0.05781    0.40102    0.36732    1.000
    N554     N        0.99584    0.36598    0.33953    1.000
    Si555    Si       0.11905    0.37856    0.27650    1.000
    N556     N        0.11935    0.40135    0.35854    1.000
    Si557    Si       0.15575    0.38236    0.34520    1.000
    N558     N        0.19332    0.40544    0.34888    1.000
    Si559    Si       0.22545    0.37844    0.35144    1.000
    N560     N        0.14505    0.36310    0.30693    1.000
    N561     N        0.20306    0.37170    0.25060    1.000
    Si562    Si       0.09242    0.41337    0.39309    1.000
    N563     N        0.04372    0.37912    0.48177    1.000
    N564     N        0.06109    0.41787    0.42744    1.000
    Si565    Si       0.05258    0.41885    0.46906    1.000
    N566     N        0.11472    0.36816    0.48431    1.000
    N567     N        0.19547    0.41324    0.42701    1.000
    Si568    Si       0.22746    0.38569    0.42744    1.000
    N569     N        0.12418    0.40329    0.42499    1.000
    Si570    Si       0.02989    0.37444    0.56264    1.000
    N571     N        0.02873    0.41532    0.57201    1.000
    Si572    Si       0.03422    0.41935    0.61566    1.000
    N573     N        0.07184    0.40590    0.62547    1.000
    Si574    Si       0.17614    0.37428    0.59921    1.000
    Si575    Si       0.13881    0.38341    0.51765    1.000
    Si576    Si       0.21048    0.40098    0.53450    1.000
    N577     N        0.18405    0.40635    0.56950    1.000
    N578     N        0.18101    0.38469    0.50517    1.000
    N579     N        0.13602    0.37768    0.61678    1.000
    N580     N        0.12769    0.42187    0.53549    1.000
    Si581    Si       0.09422    0.41893    0.73864    1.000
    Si582    Si       0.03688    0.37550    0.72294    1.000
    N583     N        0.07966    0.38046    0.71933    1.000
    N584     N        0.01280    0.41261    0.72280    1.000
    N585     N        0.99779    0.40997    0.63798    1.000
    Si586    Si       0.11367    0.41234    0.62966    1.000
    Si587    Si       0.23521    0.40943    0.63427    1.000
    N588     N        0.15276    0.36850    0.69097    1.000
    Si589    Si       0.15262    0.41090    0.69493    1.000
    N590     N        0.20043    0.38134    0.63567    1.000
    N591     N        0.13633    0.41198    0.73520    1.000
    Si592    Si       0.23202    0.42014    0.70054    1.000
    N593     N        0.02308    0.40491    0.80152    1.000
    Si594    Si       0.09408    0.39886    0.81292    1.000
    N595     N        0.10517    0.40486    0.85618    1.000
    Si596    Si       0.98917    0.41974    0.82830    1.000
    N597     N        0.13676    0.40258    0.80337    1.000
    N598     N        0.17372    0.37619    0.85310    1.000
    Si599    Si       0.16219    0.40000    0.76954    1.000
    Si600    Si       0.21723    0.37908    0.84591    1.000
    Si601    Si       0.14727    0.40967    0.84640    1.000
    N602     N        0.23675    0.39191    0.81079    1.000
    Si603    Si       0.23353    0.41975    0.77757    1.000
    N604     N        0.18047    0.36278    0.76071    1.000
    N605     N        0.99176    0.37082    0.92601    1.000
    N606     N        0.05642    0.39777    0.90589    1.000
    Si607    Si       0.09827    0.39386    0.89757    1.000
    Si608    Si       0.01353    0.40142    0.90419    1.000
    Si609    Si       0.17836    0.39538    0.96732    1.000
    N610     N        0.22747    0.40314    0.88439    1.000
    N611     N        0.22149    0.38897    0.97112    1.000
    N612     N        0.01892    0.43436    0.11091    1.000
    N613     N        0.07563    0.46681    0.08354    1.000
    Si614    Si       0.08392    0.42589    0.06742    1.000
    Si615    Si       0.05429    0.45768    0.11957    1.000
    N616     N        0.12405    0.43087    0.05200    1.000
    N617     N        0.18241    0.46046    0.06966    1.000
    Si618    Si       0.15313    0.43083    0.08412    1.000
    Si619    Si       0.22565    0.44987    0.06565    1.000
    Si620    Si       0.13247    0.42623    0.01146    1.000
    N621     N        0.13402    0.44312    0.12006    1.000
    N622     N        0.23584    0.43833    0.02519    1.000
    N623     N        0.07333    0.44489    0.15384    1.000
    N624     N        0.99315    0.46487    0.17189    1.000
    Si625    Si       0.08977    0.47478    0.18013    1.000
    N626     N        0.11540    0.45312    0.20707    1.000
    N627     N        0.19409    0.42963    0.20795    1.000
    Si628    Si       0.20135    0.45893    0.23819    1.000
    Si629    Si       0.12829    0.47893    0.24154    1.000
    Si630    Si       0.20264    0.44277    0.16702    1.000
    Si631    Si       0.09835    0.45487    0.30365    1.000
    Si632    Si       0.03048    0.46882    0.31516    1.000
    N633     N        0.02713    0.42595    0.30125    1.000
    N634     N        0.00527    0.42812    0.36405    1.000
    N635     N        0.09226    0.47496    0.26576    1.000
    N636     N        0.07127    0.47810    0.32858    1.000
    Si637    Si       0.20137    0.44928    0.35568    1.000
    N638     N        0.13490    0.46514    0.32482    1.000
    N639     N        0.16524    0.46626    0.25977    1.000
    N640     N        0.23757    0.44683    0.25913    1.000
    N641     N        0.20498    0.47197    0.31959    1.000
    Si642    Si       0.13301    0.47270    0.36976    1.000
    N643     N        0.02905    0.47161    0.40635    1.000
    N644     N        0.02260    0.44673    0.48528    1.000
    N645     N        0.09157    0.43730    0.48102    1.000
    N646     N        0.10102    0.45647    0.39855    1.000
    Si647    Si       0.02929    0.42820    0.40064    1.000
    N648     N        0.99511    0.42209    0.42706    1.000
    N649     N        0.21715    0.47224    0.43975    1.000
    Si650    Si       0.10869    0.44055    0.44065    1.000
    N651     N        0.17089    0.46407    0.38329    1.000
    N652     N        0.14630    0.46128    0.44963    1.000
    Si653    Si       0.17969    0.45214    0.42352    1.000
    Si654    Si       0.10095    0.45130    0.51996    1.000
    N655     N        0.06365    0.46344    0.53813    1.000
    Si656    Si       0.03151    0.45922    0.56748    1.000
    N657     N        0.03372    0.46384    0.61059    1.000
    Si658    Si       0.03272    0.48157    0.51273    1.000
    N659     N        0.22872    0.44025    0.52347    1.000
    N660     N        0.12706    0.44368    0.60311    1.000
    Si661    Si       0.15340    0.43763    0.56820    1.000
    N662     N        0.17156    0.47556    0.55608    1.000
    Si663    Si       0.21520    0.47612    0.54421    1.000
    Si664    Si       0.03221    0.44982    0.71552    1.000
    Si665    Si       0.10498    0.46192    0.68392    1.000
    N666     N        0.07587    0.44786    0.71176    1.000
    N667     N        0.01169    0.46762    0.67957    1.000
    N668     N        0.12155    0.42377    0.66987    1.000
    N669     N        0.19163    0.42869    0.69199    1.000
    Si670    Si       0.18842    0.47251    0.69967    1.000
    Si671    Si       0.04221    0.44595    0.79064    1.000
    N672     N        0.00775    0.45993    0.81923    1.000
    N673     N        0.02775    0.46825    0.75548    1.000
    N674     N        0.06562    0.47923    0.80988    1.000
    N675     N        0.07840    0.42317    0.77919    1.000
    Si676    Si       0.17649    0.47193    0.77774    1.000
    N677     N        0.19072    0.43168    0.77580    1.000
    N678     N        0.16678    0.44218    0.86994    1.000
    Si679    Si       0.00108    0.46015    0.88666    1.000
    N680     N        0.10569    0.43087    0.92276    1.000
    N681     N        0.01407    0.44067    0.92551    1.000
    Si682    Si       0.00833    0.43490    0.96978    1.000
    Si683    Si       0.06280    0.43650    0.93303    1.000
    N684     N        0.01228    0.47479    0.98812    1.000
    N685     N        0.05119    0.42240    0.97292    1.000
    N686     N        0.99130    0.41977    0.87014    1.000
    N687     N        0.13219    0.45759    0.98163    1.000
    N688     N        0.17625    0.42576    0.93524    1.000
    Si689    Si       0.19865    0.43211    0.89935    1.000
    N690     N        0.22054    0.46939    0.90919    1.000
    Si691    Si       0.14080    0.45170    0.93737    1.000
    Si692    Si       0.01380    0.50676    0.09750    1.000
    Si693    Si       0.06630    0.49753    0.05308    1.000
    N694     N        0.02169    0.49465    0.05420    1.000
    N695     N        0.07957    0.49408    0.01190    1.000
    Si696    Si       0.10429    0.52437    0.10712    1.000
    N697     N        0.08056    0.53405    0.07127    1.000
    Si698    Si       0.99056    0.48699    0.02375    1.000
    N699     N        0.14936    0.50547    0.02496    1.000
    N700     N        0.14345    0.50692    0.09678    1.000
    Si701    Si       0.16933    0.50315    0.06187    1.000
    N702     N        0.20323    0.53289    0.06000    1.000
    N703     N        0.04052    0.49810    0.13053    1.000
    N704     N        0.05657    0.49002    0.20368    1.000
    Si705    Si       0.02389    0.49818    0.17259    1.000
    N706     N        0.11166    0.50263    0.15367    1.000
    N707     N        0.00199    0.53629    0.16840    1.000
    Si708    Si       0.05726    0.49599    0.24779    1.000
    Si709    Si       0.14591    0.48221    0.13122    1.000
    Si710    Si       0.22827    0.52896    0.23843    1.000
    Si711    Si       0.12498    0.53367    0.18483    1.000
    N712     N        0.13238    0.51758    0.22480    1.000
    N713     N        0.23432    0.52297    0.16246    1.000
    N714     N        0.21137    0.49528    0.21541    1.000
    Si715    Si       0.19406    0.51338    0.17837    1.000
    N716     N        0.17866    0.48033    0.15758    1.000
    Si717    Si       0.08113    0.51734    0.34666    1.000
    N718     N        0.02391    0.48883    0.27726    1.000
    N719     N        0.00192    0.48938    0.33976    1.000
    N720     N        0.15384    0.52658    0.29333    1.000
    Si721    Si       0.16742    0.48407    0.30075    1.000
    N722     N        0.12199    0.51504    0.36905    1.000
    N723     N        0.98672    0.52413    0.40097    1.000
    Si724    Si       0.99393    0.48311    0.38319    1.000
    N725     N        0.09035    0.49959    0.44677    1.000
    N726     N        0.05984    0.52296    0.38553    1.000
    Si727    Si       0.07045    0.48845    0.40924    1.000
    Si728    Si       0.06687    0.53139    0.46823    1.000
    N729     N        0.15208    0.53037    0.46036    1.000
    Si730    Si       0.12887    0.49638    0.46828    1.000
    Si731    Si       0.23301    0.49839    0.47119    1.000
    N732     N        0.04374    0.52324    0.50414    1.000
    N733     N        0.10943    0.50616    0.57995    1.000
    N734     N        0.00319    0.48326    0.54478    1.000
    Si735    Si       0.11449    0.48212    0.61734    1.000
    N736     N        0.12408    0.48869    0.51091    1.000
    Si737    Si       0.13825    0.50416    0.54817    1.000
    N738     N        0.22022    0.50861    0.51408    1.000
    N739     N        0.03809    0.52437    0.71509    1.000
    N740     N        0.02949    0.52421    0.64838    1.000
    Si741    Si       0.00181    0.51382    0.68843    1.000
    N742     N        0.10787    0.52749    0.72418    1.000
    Si743    Si       0.04253    0.48285    0.64719    1.000
    N744     N        0.08647    0.48004    0.64968    1.000
    N745     N        0.18844    0.49013    0.73948    1.000
    Si746    Si       0.14361    0.50607    0.73301    1.000
    N747     N        0.14137    0.51315    0.63057    1.000
    Si748    Si       0.17500    0.53422    0.64965    1.000
    N749     N        0.19872    0.50139    0.66782    1.000
    N750     N        0.14414    0.47816    0.69894    1.000
    Si751    Si       0.03165    0.49881    0.83322    1.000
    Si752    Si       0.10649    0.49096    0.80438    1.000
    Si753    Si       0.10020    0.52857    0.85720    1.000
    N754     N        0.02521    0.52683    0.78975    1.000
    Si755    Si       0.01780    0.51163    0.75026    1.000
    N756     N        0.10195    0.53364    0.79190    1.000
    N757     N        0.05785    0.53396    0.84515    1.000
    N758     N        0.99315    0.53871    0.84867    1.000
    N759     N        0.12240    0.49412    0.84356    1.000
    Si760    Si       0.21526    0.51445    0.83092    1.000
    N761     N        0.18795    0.51705    0.86741    1.000
    Si762    Si       0.20282    0.52864    0.75040    1.000
    N763     N        0.18619    0.48318    0.81704    1.000
    Si764    Si       0.16229    0.48399    0.85482    1.000
    N765     N        0.21241    0.53576    0.79228    1.000
    N766     N        0.13272    0.47941    0.77017    1.000
    Si767    Si       0.04877    0.49561    0.98046    1.000
    N768     N        0.09273    0.52223    0.90019    1.000
    Si769    Si       0.05245    0.50598    0.90954    1.000
    N770     N        0.06337    0.48175    0.94233    1.000
    N771     N        0.03274    0.48567    0.87556    1.000
    N772     N        0.03672    0.53920    0.97832    1.000
    N773     N        0.15138    0.49189    0.92152    1.000
    Si774    Si       0.19232    0.50246    0.91312    1.000
    N775     N        0.20454    0.53435    0.93629    1.000
    Si776    Si       0.12471    0.52656    0.92725    1.000
    N777     N        0.11859    0.53126    0.96915    1.000
    Si778    Si       0.11934    0.49750    0.99541    1.000
    Si779    Si       0.09047    0.57339    0.05067    1.000
    N780     N        0.08781    0.57691    0.00779    1.000
    N781     N        0.00155    0.54785    0.09432    1.000
    N782     N        0.02223    0.57970    0.03436    1.000
    Si783    Si       0.04610    0.57609    0.99800    1.000
    Si784    Si       0.98932    0.55835    0.05378    1.000
    Si785    Si       0.21358    0.57061    0.08084    1.000
    N786     N        0.13432    0.57599    0.06234    1.000
    N787     N        0.18376    0.57933    0.11209    1.000
    Si788    Si       0.14200    0.58633    0.10325    1.000
    N789     N        0.15951    0.59180    0.99805    1.000
    Si790    Si       0.07786    0.56834    0.22838    1.000
    Si791    Si       0.01129    0.56548    0.13639    1.000
    Si792    Si       0.08552    0.58539    0.15456    1.000
    N793     N        0.08998    0.55841    0.18853    1.000
    N794     N        0.04659    0.58889    0.13548    1.000
    N795     N        0.11127    0.56482    0.12507    1.000
    N796     N        0.16537    0.54560    0.17186    1.000
    N797     N        0.19126    0.55440    0.24348    1.000
    Si798    Si       0.18860    0.58207    0.15648    1.000
    N799     N        0.22520    0.59384    0.17599    1.000
    Si800    Si       0.09892    0.58702    0.32985    1.000
    N801     N        0.07286    0.55184    0.32142    1.000
    Si802    Si       0.00850    0.58357    0.34209    1.000
    Si803    Si       0.04059    0.55402    0.29140    1.000
    N804     N        0.00271    0.55054    0.31354    1.000
    N805     N        0.02775    0.59298    0.27612    1.000
    N806     N        0.05765    0.53866    0.25404    1.000
    N807     N        0.13575    0.57261    0.34537    1.000
    Si808    Si       0.16508    0.56127    0.31663    1.000
    N809     N        0.20367    0.55817    0.33437    1.000
    N810     N        0.23315    0.58596    0.27866    1.000
    Si811    Si       0.23431    0.55049    0.30522    1.000
    Si812    Si       0.14900    0.54705    0.25356    1.000
    Si813    Si       0.19707    0.59608    0.26049    1.000
    N814     N        0.16384    0.59542    0.28804    1.000
    N815     N        0.11474    0.57602    0.24969    1.000
    Si816    Si       0.02753    0.54587    0.40408    1.000
    Si817    Si       0.99990    0.55387    0.47529    1.000
    N818     N        0.02757    0.58353    0.38222    1.000
    N819     N        0.09815    0.55855    0.48442    1.000
    N820     N        0.03206    0.54470    0.44695    1.000
    N821     N        0.11575    0.57250    0.41234    1.000
    Si822    Si       0.12533    0.56737    0.45224    1.000
    N823     N        0.22383    0.53970    0.45737    1.000
    N824     N        0.17848    0.56198    0.39814    1.000
    Si825    Si       0.18535    0.55840    0.46609    1.000
    N826     N        0.16136    0.59315    0.45352    1.000
    Si827    Si       0.21676    0.56515    0.37610    1.000
    Si828    Si       0.13869    0.55142    0.38327    1.000
    N829     N        0.07613    0.57413    0.54977    1.000
    Si830    Si       0.00768    0.58129    0.58856    1.000
    Si831    Si       0.04077    0.56068    0.52745    1.000
    N832     N        0.04434    0.58066    0.61227    1.000
    N833     N        0.01191    0.55200    0.55697    1.000
    Si834    Si       0.08080    0.59366    0.58936    1.000
    N835     N        0.02217    0.58784    0.49784    1.000
    Si836    Si       0.11192    0.56878    0.52612    1.000
    N837     N        0.12064    0.58197    0.60526    1.000
    Si838    Si       0.20813    0.57848    0.58903    1.000
    N839     N        0.19410    0.57298    0.50806    1.000
    N840     N        0.18048    0.55309    0.60779    1.000
    Si841    Si       0.22880    0.55102    0.51912    1.000
    N842     N        0.14236    0.54690    0.54897    1.000
    N843     N        0.23531    0.55378    0.56254    1.000
    Si844    Si       0.13893    0.54241    0.59390    1.000
    N845     N        0.23652    0.59530    0.61640    1.000
    Si846    Si       0.07134    0.54887    0.71527    1.000
    Si847    Si       0.04075    0.56583    0.65308    1.000
    N848     N        0.00561    0.58198    0.67135    1.000
    N849     N        0.07458    0.57364    0.67844    1.000
    Si850    Si       0.14777    0.59601    0.63697    1.000
    N851     N        0.16161    0.54907    0.73780    1.000
    Si852    Si       0.22720    0.58764    0.73321    1.000
    Si853    Si       0.15980    0.58388    0.70721    1.000
    N854     N        0.15645    0.56814    0.66773    1.000
    N855     N        0.23483    0.54596    0.72511    1.000
    Si856    Si       0.06267    0.54874    0.80111    1.000
    N857     N        0.06963    0.59110    0.81098    1.000
    Si858    Si       0.02906    0.55740    0.86896    1.000
    N859     N        0.07307    0.57237    0.75157    1.000
    Si860    Si       0.98807    0.54288    0.80485    1.000
    Si861    Si       0.11758    0.56112    0.75890    1.000
    N862     N        0.12709    0.56161    0.85121    1.000
    N863     N        0.19206    0.58681    0.86469    1.000
    N864     N        0.13551    0.59256    0.78683    1.000
    Si865    Si       0.16372    0.55561    0.87364    1.000
    Si866    Si       0.23785    0.57293    0.80305    1.000
    Si867    Si       0.23592    0.57966    0.86834    1.000
    N868     N        0.03021    0.54433    0.90986    1.000
    Si869    Si       0.01535    0.56069    0.94751    1.000
    Si870    Si       0.12358    0.57426    0.98214    1.000
    N871     N        0.23058    0.58245    0.98177    1.000
    N872     N        0.14630    0.56019    0.91270    1.000
    Si873    Si       0.21770    0.57497    0.93941    1.000
    N874     N        0.01123    0.62257    0.08807    1.000
    N875     N        0.07502    0.61279    0.05979    1.000
    Si876    Si       0.03295    0.61974    0.05063    1.000
    Si877    Si       0.10376    0.64600    0.07212    1.000
    N878     N        0.02210    0.65010    0.02288    1.000
    N879     N        0.14291    0.64127    0.04554    1.000
    Si880    Si       0.22571    0.63954    0.04747    1.000
    N881     N        0.12852    0.62783    0.10786    1.000
    N882     N        0.21523    0.64509    0.00402    1.000
    N883     N        0.20315    0.60312    0.05394    1.000
    Si884    Si       0.16207    0.60165    0.03988    1.000
    Si885    Si       0.03706    0.63110    0.12263    1.000
    N886     N        0.05587    0.60714    0.22086    1.000
    N887     N        0.09937    0.62311    0.16979    1.000
    Si888    Si       0.08177    0.63897    0.20412    1.000
    Si889    Si       0.01696    0.61542    0.24036    1.000
    N890     N        0.01958    0.64790    0.15663    1.000
    N891     N        0.11367    0.64196    0.23670    1.000
    N892     N        0.19624    0.62524    0.23095    1.000
    Si893    Si       0.13427    0.64115    0.15021    1.000
    Si894    Si       0.20454    0.63075    0.18910    1.000
    N895     N        0.16854    0.62006    0.16600    1.000
    N896     N        0.03077    0.61989    0.33403    1.000
    N897     N        0.09095    0.61351    0.29707    1.000
    Si898    Si       0.04385    0.63126    0.29438    1.000
    N899     N        0.09143    0.62041    0.35907    1.000
    N900     N        0.01362    0.65248    0.26687    1.000
    Si901    Si       0.10049    0.65108    0.32402    1.000
    Si902    Si       0.12812    0.61521    0.26990    1.000
    Si903    Si       0.04888    0.62305    0.37541    1.000
    N904     N        0.07354    0.62278    0.41993    1.000
    Si905    Si       0.10968    0.61286    0.39786    1.000
    Si906    Si       0.02674    0.63049    0.49202    1.000
    N907     N        0.01616    0.65004    0.45271    1.000
    N908     N        0.07019    0.63499    0.49496    1.000
    N909     N        0.13268    0.65322    0.46763    1.000
    Si910    Si       0.18032    0.60497    0.41139    1.000
    N911     N        0.21639    0.60899    0.38387    1.000
    Si912    Si       0.17265    0.63167    0.47032    1.000
    N913     N        0.20294    0.63419    0.44023    1.000
    N914     N        0.14896    0.63120    0.39421    1.000
    N915     N        0.07794    0.63720    0.58320    1.000
    N916     N        0.00760    0.61976    0.56946    1.000
    Si917    Si       0.03595    0.65077    0.58407    1.000
    Si918    Si       0.11111    0.64537    0.50471    1.000
    N919     N        0.00045    0.65815    0.51575    1.000
    Si920    Si       0.18482    0.64992    0.59052    1.000
    N921     N        0.13029    0.60860    0.52114    1.000
    N922     N        0.18706    0.63889    0.50848    1.000
    N923     N        0.18794    0.61129    0.57007    1.000
    Si924    Si       0.17225    0.60392    0.52961    1.000
    N925     N        0.02904    0.65084    0.62700    1.000
    N926     N        0.06833    0.64246    0.69620    1.000
    Si927    Si       0.09461    0.61122    0.68614    1.000
    N928     N        0.99938    0.65221    0.69049    1.000
    Si929    Si       0.03234    0.65327    0.72079    1.000
    N930     N        0.17916    0.62659    0.63205    1.000
    Si931    Si       0.22270    0.63019    0.63898    1.000
    Si932    Si       0.19201    0.64925    0.71905    1.000
    Si933    Si       0.12187    0.64766    0.74334    1.000
    N934     N        0.12122    0.62499    0.65477    1.000
    N935     N        0.19598    0.60583    0.70965    1.000
    N936     N        0.12340    0.60572    0.72096    1.000
    Si937    Si       0.05823    0.62291    0.83952    1.000
    N938     N        0.10180    0.63008    0.84705    1.000
    Si939    Si       0.06059    0.60950    0.77001    1.000
    N940     N        0.08685    0.64386    0.76828    1.000
    N941     N        0.03889    0.64897    0.80922    1.000
    N942     N        0.03331    0.60058    0.86715    1.000
    N943     N        0.02415    0.61975    0.74887    1.000
    Si944    Si       0.11501    0.59469    0.82482    1.000
    Si945    Si       0.19924    0.62600    0.84822    1.000
    N946     N        0.17833    0.64258    0.81597    1.000
    Si947    Si       0.17296    0.61438    0.78168    1.000
    N948     N        0.16484    0.65027    0.75470    1.000
    N949     N        0.21044    0.59652    0.77337    1.000
    Si950    Si       0.09601    0.64470    0.94806    1.000
    Si951    Si       0.02052    0.64371    0.97851    1.000
    Si952    Si       0.00578    0.62877    0.88351    1.000
    N953     N        0.02567    0.59942    0.96803    1.000
    N954     N        0.01661    0.65641    0.91349    1.000
    N955     N        0.11486    0.60532    0.95070    1.000
    N956     N        0.14660    0.63837    0.90060    1.000
    Si957    Si       0.19683    0.61028    0.98432    1.000
    Si958    Si       0.14878    0.60127    0.92477    1.000
    N959     N        0.18999    0.61073    0.93882    1.000
    N960     N        0.20685    0.65654    0.87778    1.000
    Si961    Si       0.18773    0.64937    0.91535    1.000
    Si962    Si       0.00563    0.68964    0.03564    1.000
    N963     N        0.08954    0.68160    0.04042    1.000
    Si964    Si       0.05165    0.69813    0.10353    1.000
    N965     N        0.01994    0.69523    0.07631    1.000
    N966     N        0.06892    0.65752    0.10691    1.000
    Si967    Si       0.22564    0.69289    0.09976    1.000
    Si968    Si       0.16652    0.67684    0.05148    1.000
    N969     N        0.16550    0.69914    0.01414    1.000
    N970     N        0.20659    0.67329    0.06596    1.000
    N971     N        0.14210    0.70085    0.08004    1.000
    N972     N        0.06133    0.67832    0.20209    1.000
    Si973    Si       0.02853    0.68635    0.17621    1.000
    N974     N        0.00007    0.71321    0.19938    1.000
    N975     N        0.04276    0.71060    0.14430    1.000
    N976     N        0.23262    0.66102    0.12805    1.000
    Si977    Si       0.15367    0.71224    0.11964    1.000
    N978     N        0.14605    0.68284    0.15273    1.000
    N979     N        0.15999    0.68928    0.23180    1.000
    N980     N        0.21654    0.67391    0.20031    1.000
    Si981    Si       0.15581    0.70223    0.19042    1.000
    Si982    Si       0.19745    0.66800    0.24088    1.000
    N983     N        0.06655    0.67217    0.30503    1.000
    N984     N        0.09442    0.70941    0.25740    1.000
    Si985    Si       0.06421    0.71059    0.28816    1.000
    N986     N        0.11777    0.68607    0.35208    1.000
    Si987    Si       0.12482    0.67879    0.25528    1.000
    N988     N        0.18118    0.67407    0.35022    1.000
    Si989    Si       0.17022    0.68208    0.30927    1.000
    N990     N        0.20401    0.67088    0.28359    1.000
    N991     N        0.13458    0.65859    0.29495    1.000
    Si992    Si       0.00385    0.68424    0.37281    1.000
    N993     N        0.07836    0.69227    0.43711    1.000
    N994     N        0.03690    0.66270    0.38734    1.000
    Si995    Si       0.05214    0.65813    0.42906    1.000
    N996     N        0.22868    0.68214    0.40979    1.000
    Si997    Si       0.12054    0.68970    0.44631    1.000
    N998     N        0.14596    0.69916    0.41218    1.000
    Si999    Si       0.21136    0.69713    0.37311    1.000
    Si1000   Si       0.14727    0.67188    0.37784    1.000
    N1001    N        0.23352    0.68652    0.49022    1.000
    Si1002   Si       0.22821    0.70252    0.44908    1.000
    N1003    N        0.02698    0.69057    0.56741    1.000
    N1004    N        0.08932    0.70604    0.59583    1.000
    Si1005   Si       0.99763    0.69816    0.53365    1.000
    Si1006   Si       0.10840    0.66896    0.57990    1.000
    N1007    N        0.11288    0.67627    0.53445    1.000
    Si1008   Si       0.21824    0.66284    0.52657    1.000
    Si1009   Si       0.22701    0.70192    0.58774    1.000
    N1010    N        0.19322    0.68169    0.56066    1.000
    N1011    N        0.22504    0.66498    0.61149    1.000
    N1012    N        0.14593    0.67029    0.60123    1.000
    Si1013   Si       0.08747    0.68019    0.68825    1.000
    Si1014   Si       0.01583    0.67583    0.65783    1.000
    N1015    N        0.05081    0.69965    0.67292    1.000
    N1016    N        0.03769    0.68916    0.74788    1.000
    N1017    N        0.11379    0.68649    0.72323    1.000
    N1018    N        0.12169    0.69200    0.66156    1.000
    Si1019   Si       0.14887    0.65981    0.64813    1.000
    Si1020   Si       0.15011    0.70242    0.70082    1.000
    N1021    N        0.22846    0.66923    0.72849    1.000
    N1022    N        0.17392    0.66871    0.68414    1.000
    Si1023   Si       0.06034    0.67697    0.78340    1.000
    N1024    N        0.04228    0.69224    0.86287    1.000
    Si1025   Si       0.99858    0.66635    0.81641    1.000
    N1026    N        0.00077    0.71020    0.81582    1.000
    N1027    N        0.07158    0.71319    0.80454    1.000
    N1028    N        0.11944    0.69552    0.85968    1.000
    Si1029   Si       0.17531    0.67673    0.78970    1.000
    N1030    N        0.21255    0.69886    0.79016    1.000
    N1031    N        0.14224    0.70573    0.79334    1.000
    Si1032   Si       0.23184    0.69068    0.86944    1.000
    Si1033   Si       0.04716    0.68860    0.90505    1.000
    N1034    N        0.06018    0.65844    0.97196    1.000
    Si1035   Si       0.08546    0.68712    0.99666    1.000
    N1036    N        0.08326    0.65742    0.90898    1.000
    Si1037   Si       0.98598    0.68174    0.92746    1.000
    Si1038   Si       0.11534    0.65718    0.87725    1.000
    N1039    N        0.18843    0.67859    0.94618    1.000
    Si1040   Si       0.15671    0.69696    0.97016    1.000
    N1041    N        0.11873    0.67609    0.96961    1.000
    Si1042   Si       0.22415    0.67432    0.97163    1.000
    N1043    N        0.07841    0.73004    0.09079    1.000
    N1044    N        0.00539    0.72941    0.01673    1.000
    Si1045   Si       0.09387    0.76329    0.11360    1.000
    Si1046   Si       0.10701    0.71733    0.05957    1.000
    Si1047   Si       0.03640    0.75456    0.99796    1.000
    N1048    N        0.12040    0.75164    0.03739    1.000
    Si1049   Si       0.15337    0.74198    0.01140    1.000
    N1050    N        0.19014    0.76313    0.01747    1.000
    N1051    N        0.21967    0.76589    0.07772    1.000
    Si1052   Si       0.21366    0.76062    0.11991    1.000
    N1053    N        0.19652    0.72172    0.11808    1.000
    Si1054   Si       0.22628    0.74922    0.99944    1.000
    N1055    N        0.05399    0.74939    0.20449    1.000
    Si1056   Si       0.01777    0.74140    0.22895    1.000
    Si1057   Si       0.04069    0.75001    0.16194    1.000
    N1058    N        0.00346    0.76243    0.14187    1.000
    Si1059   Si       0.08178    0.71540    0.21570    1.000
    N1060    N        0.17749    0.73982    0.18763    1.000
    N1061    N        0.13059    0.74845    0.13243    1.000
    Si1062   Si       0.13876    0.75670    0.17666    1.000
    N1063    N        0.11705    0.72248    0.19274    1.000
    Si1064   Si       0.20511    0.75947    0.21447    1.000
    N1065    N        0.08017    0.73693    0.32004    1.000
    Si1066   Si       0.05060    0.74383    0.35153    1.000
    N1067    N        0.03006    0.72842    0.26769    1.000
    N1068    N        0.01403    0.71779    0.34647    1.000
    Si1069   Si       0.12012    0.72924    0.33709    1.000
    N1070    N        0.15460    0.72329    0.30786    1.000
    N1071    N        0.19356    0.75389    0.25874    1.000
    Si1072   Si       0.17055    0.76305    0.29320    1.000
    N1073    N        0.13710    0.76490    0.35726    1.000
    Si1074   Si       0.23712    0.74703    0.26507    1.000
    N1075    N        0.02736    0.74260    0.43862    1.000
    Si1076   Si       0.06731    0.73174    0.42814    1.000
    N1077    N        0.07789    0.74126    0.38557    1.000
    Si1078   Si       0.00051    0.73961    0.47487    1.000
    N1079    N        0.08876    0.76843    0.44064    1.000
    Si1080   Si       0.11258    0.77058    0.39815    1.000
    N1081    N        0.14896    0.76946    0.42558    1.000
    N1082    N        0.12645    0.72111    0.47642    1.000
    Si1083   Si       0.17241    0.73318    0.41793    1.000
    N1084    N        0.19309    0.73820    0.38022    1.000
    Si1085   Si       0.12528    0.76275    0.46306    1.000
    N1086    N        0.19519    0.72955    0.45558    1.000
    Si1087   Si       0.22381    0.76035    0.46893    1.000
    N1088    N        0.07777    0.73490    0.52978    1.000
    N1089    N        0.03924    0.76176    0.57183    1.000
    N1090    N        0.01306    0.73498    0.51562    1.000
    Si1091   Si       0.04602    0.76329    0.52717    1.000
    Si1092   Si       0.05916    0.72143    0.56944    1.000
    Si1093   Si       0.11501    0.71609    0.51847    1.000
    N1094    N        0.14796    0.73618    0.54055    1.000
    N1095    N        0.20573    0.74000    0.57952    1.000
    N1096    N        0.14485    0.74135    0.60674    1.000
    Si1097   Si       0.22774    0.75756    0.54595    1.000
    Si1098   Si       0.22240    0.76401    0.61506    1.000
    Si1099   Si       0.16592    0.71685    0.57532    1.000
    N1100    N        0.02540    0.75683    0.64523    1.000
    Si1101   Si       0.02346    0.72886    0.73535    1.000
    Si1102   Si       0.05598    0.74310    0.67245    1.000
    N1103    N        0.09321    0.75204    0.65421    1.000
    N1104    N        0.05594    0.75310    0.71534    1.000
    Si1105   Si       0.11399    0.72171    0.62916    1.000
    N1106    N        0.99201    0.73320    0.70249    1.000
    Si1107   Si       0.20750    0.75451    0.72450    1.000
    N1108    N        0.17443    0.72700    0.72723    1.000
    N1109    N        0.02710    0.75939    0.85734    1.000
    N1110    N        0.10866    0.75468    0.84683    1.000
    N1111    N        0.99942    0.75238    0.76416    1.000
    Si1112   Si       0.03903    0.72356    0.83362    1.000
    Si1113   Si       0.11295    0.71849    0.82214    1.000
    Si1114   Si       0.15665    0.73831    0.76829    1.000
    N1115    N        0.18302    0.75773    0.80024    1.000
    Si1116   Si       0.21793    0.73290    0.81443    1.000
    N1117    N        0.21176    0.72778    0.85591    1.000
    N1118    N        0.12441    0.76566    0.75570    1.000
    Si1119   Si       0.07265    0.74890    0.94619    1.000
    N1120    N        0.06884    0.72634    0.98652    1.000
    N1121    N        0.07810    0.72272    0.91229    1.000
    Si1122   Si       0.99503    0.74754    0.88667    1.000
    Si1123   Si       0.11310    0.73226    0.88484    1.000
    N1124    N        0.00789    0.71721    0.91536    1.000
    N1125    N        0.21140    0.75861    0.92201    1.000
    N1126    N        0.14988    0.74586    0.90008    1.000
    N1127    N        0.14803    0.73982    0.96920    1.000
    Si1128   Si       0.14696    0.76886    0.93805    1.000
    N1129    N        0.23202    0.71640    0.97252    1.000
    Si1130   Si       0.19106    0.75497    0.88322    1.000
    N1131    N        0.08616    0.79712    0.08629    1.000
    Si1132   Si       0.00457    0.80866    0.04107    1.000
    N1133    N        0.03867    0.79102    0.02259    1.000
    N1134    N        0.01143    0.80857    0.08377    1.000
    Si1135   Si       0.05195    0.82586    0.09050    1.000
    N1136    N        0.11095    0.82241    0.02357    1.000
    Si1137   Si       0.06760    0.82682    0.02078    1.000
    Si1138   Si       0.11735    0.79287    0.05483    1.000
    N1139    N        0.21715    0.82099    0.03952    1.000
    N1140    N        0.15646    0.79935    0.07318    1.000
    Si1141   Si       0.19352    0.78762    0.05178    1.000
    Si1142   Si       0.16716    0.82209    0.10781    1.000
    Si1143   Si       0.06656    0.81635    0.16092    1.000
    Si1144   Si       0.01708    0.81604    0.23014    1.000
    N1145    N        0.03486    0.81812    0.18914    1.000
    N1146    N        0.99567    0.77896    0.23094    1.000
    N1147    N        0.07298    0.77539    0.14870    1.000
    N1148    N        0.19706    0.80062    0.12963    1.000
    Si1149   Si       0.23031    0.80289    0.16100    1.000
    N1150    N        0.13850    0.79278    0.19636    1.000
    N1151    N        0.21269    0.79729    0.19905    1.000
    N1152    N        0.08204    0.81895    0.32169    1.000
    Si1153   Si       0.06218    0.81304    0.36024    1.000
    N1154    N        0.03134    0.78225    0.35424    1.000
    N1155    N        0.99922    0.82857    0.31391    1.000
    N1156    N        0.05258    0.83521    0.24966    1.000
    Si1157   Si       0.12162    0.80385    0.33906    1.000
    Si1158   Si       0.23523    0.79989    0.31241    1.000
    N1159    N        0.14019    0.79524    0.29691    1.000
    Si1160   Si       0.18057    0.77370    0.36100    1.000
    N1161    N        0.20023    0.77576    0.32338    1.000
    Si1162   Si       0.99927    0.81005    0.48878    1.000
    N1163    N        0.10016    0.80721    0.38004    1.000
    N1164    N        0.03415    0.80910    0.42818    1.000
    Si1165   Si       0.06406    0.80073    0.45870    1.000
    Si1166   Si       0.00600    0.77670    0.42330    1.000
    N1167    N        0.03929    0.79447    0.49703    1.000
    Si1168   Si       0.12973    0.83292    0.48514    1.000
    N1169    N        0.17914    0.81099    0.38566    1.000
    N1170    N        0.20949    0.79718    0.45474    1.000
    Si1171   Si       0.17456    0.80588    0.42917    1.000
    N1172    N        0.13252    0.78906    0.49624    1.000
    N1173    N        0.01195    0.81935    0.60718    1.000
    Si1174   Si       0.01818    0.77588    0.60566    1.000
    Si1175   Si       0.14927    0.78368    0.60597    1.000
    N1176    N        0.14355    0.80070    0.56630    1.000
    N1177    N        0.19586    0.78719    0.53162    1.000
    Si1178   Si       0.22473    0.81705    0.54893    1.000
    Si1179   Si       0.15478    0.77748    0.52992    1.000
    Si1180   Si       0.05607    0.79611    0.71543    1.000
    N1181    N        0.01128    0.80342    0.70961    1.000
    N1182    N        0.07754    0.81505    0.68342    1.000
    Si1183   Si       0.11047    0.79279    0.66591    1.000
    N1184    N        0.11903    0.80751    0.62662    1.000
    Si1185   Si       0.14441    0.79315    0.73002    1.000
    Si1186   Si       0.18433    0.80272    0.66965    1.000
    N1187    N        0.21593    0.77950    0.68969    1.000
    N1188    N        0.18668    0.78772    0.62738    1.000
    N1189    N        0.14649    0.78982    0.68758    1.000
    N1190    N        0.12799    0.83113    0.74367    1.000
    N1191    N        0.06913    0.81374    0.83009    1.000
    Si1192   Si       0.03871    0.80292    0.85842    1.000
    Si1193   Si       0.10793    0.79993    0.84350    1.000
    N1194    N        0.00490    0.82744    0.84501    1.000
    N1195    N        0.98680    0.81791    0.77081    1.000
    N1196    N        0.05798    0.82420    0.74876    1.000
    N1197    N        0.19940    0.82855    0.80398    1.000
    N1198    N        0.19026    0.79447    0.86465    1.000
    Si1199   Si       0.17799    0.79473    0.82261    1.000
    Si1200   Si       0.21442    0.82008    0.76275    1.000
    N1201    N        0.13724    0.80903    0.81269    1.000
    N1202    N        0.18660    0.79008    0.74410    1.000
    N1203    N        0.10275    0.77898    0.93691    1.000
    Si1204   Si       0.01899    0.80416    0.93211    1.000
    N1205    N        0.04960    0.81271    0.90126    1.000
    Si1206   Si       0.09114    0.81567    0.91603    1.000
    N1207    N        0.11437    0.82528    0.88002    1.000
    N1208    N        0.03562    0.77337    0.95724    1.000
    N1209    N        0.17308    0.80409    0.94899    1.000
    Si1210   Si       0.21542    0.79614    0.94446    1.000
    N1211    N        0.23707    0.82131    0.91934    1.000
    Si1212   Si       0.22571    0.81904    0.87746    1.000
    N1213    N        0.06066    0.85225    0.05663    1.000
    N1214    N        0.99881    0.84932    0.02211    1.000
    Si1215   Si       0.08357    0.89225    0.05259    1.000
    N1216    N        0.18450    0.86052    0.08980    1.000
    Si1217   Si       0.21748    0.85587    0.06391    1.000
    Si1218   Si       0.12911    0.86303    0.02072    1.000
    N1219    N        0.12397    0.88138    0.06302    1.000
    N1220    N        0.21380    0.88626    0.03458    1.000
    Si1221   Si       0.05892    0.85667    0.21245    1.000
    Si1222   Si       0.01726    0.85460    0.15827    1.000
    N1223    N        0.02078    0.87724    0.19633    1.000
    N1224    N        0.09152    0.84103    0.18686    1.000
    N1225    N        0.04849    0.84056    0.13000    1.000
    N1226    N        0.99349    0.88812    0.13519    1.000
    N1227    N        0.15969    0.86874    0.19366    1.000
    Si1228   Si       0.17039    0.87376    0.15174    1.000
    Si1229   Si       0.17155    0.88090    0.23263    1.000
    N1230    N        0.21401    0.88121    0.15165    1.000
    N1231    N        0.14329    0.84112    0.14149    1.000
    Si1232   Si       0.13470    0.83370    0.18390    1.000
    N1233    N        0.04887    0.87565    0.30691    1.000
    Si1234   Si       0.02087    0.85906    0.33373    1.000
    Si1235   Si       0.07143    0.84411    0.28854    1.000
    N1236    N        0.11053    0.86535    0.28075    1.000
    N1237    N        0.03883    0.84692    0.37085    1.000
    N1238    N        0.14642    0.84262    0.33628    1.000
    N1239    N        0.17529    0.85355    0.26675    1.000
    Si1240   Si       0.21417    0.86849    0.27723    1.000
    Si1241   Si       0.14275    0.83888    0.29259    1.000
    N1242    N        0.22566    0.84172    0.31170    1.000
    Si1243   Si       0.16971    0.85280    0.37124    1.000
    N1244    N        0.20898    0.87419    0.36870    1.000
    N1245    N        0.00221    0.85302    0.48183    1.000
    Si1246   Si       0.08027    0.87635    0.46930    1.000
    Si1247   Si       0.03376    0.85083    0.41381    1.000
    N1248    N        0.05429    0.88503    0.43672    1.000
    N1249    N        0.99409    0.86828    0.41632    1.000
    N1250    N        0.09089    0.83367    0.46731    1.000
    N1251    N        0.15533    0.83851    0.45068    1.000
    Si1252   Si       0.23119    0.87411    0.40848    1.000
    Si1253   Si       0.14991    0.88295    0.43934    1.000
    N1254    N        0.14254    0.87729    0.39628    1.000
    N1255    N        0.22027    0.86588    0.44979    1.000
    Si1256   Si       0.23288    0.83018    0.47071    1.000
    Si1257   Si       0.03243    0.84999    0.58546    1.000
    Si1258   Si       0.09492    0.86703    0.54433    1.000
    Si1259   Si       0.02294    0.87223    0.51440    1.000
    N1260    N        0.07568    0.84536    0.57767    1.000
    N1261    N        0.01052    0.85219    0.54896    1.000
    N1262    N        0.06539    0.87393    0.51124    1.000
    Si1263   Si       0.10429    0.84463    0.61059    1.000
    N1264    N        0.13789    0.86428    0.59185    1.000
    N1265    N        0.20048    0.84781    0.56780    1.000
    N1266    N        0.13346    0.85292    0.52713    1.000
    Si1267   Si       0.15822    0.84082    0.56095    1.000
    Si1268   Si       0.21545    0.88467    0.58483    1.000
    N1269    N        0.02971    0.86052    0.66347    1.000
    Si1270   Si       0.07188    0.85695    0.67541    1.000
    N1271    N        0.08549    0.88057    0.71292    1.000
    N1272    N        0.09459    0.87372    0.64262    1.000
    Si1273   Si       0.99746    0.83531    0.68253    1.000
    N1274    N        0.98946    0.86195    0.71677    1.000
    Si1275   Si       0.09072    0.85249    0.74471    1.000
    N1276    N        0.21519    0.85839    0.74398    1.000
    N1277    N        0.22438    0.88317    0.62545    1.000
    Si1278   Si       0.20094    0.88349    0.66258    1.000
    N1279    N        0.18236    0.84440    0.66909    1.000
    N1280    N        0.02915    0.86909    0.77998    1.000
    N1281    N        0.09812    0.86513    0.78844    1.000
    Si1282   Si       0.01129    0.87038    0.85141    1.000
    Si1283   Si       0.06128    0.85110    0.80699    1.000
    N1284    N        0.05299    0.87956    0.83991    1.000
    Si1285   Si       0.01410    0.84282    0.74945    1.000
    N1286    N        0.15690    0.88212    0.77759    1.000
    Si1287   Si       0.19785    0.86633    0.82895    1.000
    N1288    N        0.15742    0.86642    0.84514    1.000
    Si1289   Si       0.14041    0.84318    0.78601    1.000
    N1290    N        0.22317    0.86050    0.86372    1.000
    Si1291   Si       0.19761    0.88960    0.76753    1.000
    N1292    N        0.05549    0.84702    0.98504    1.000
    Si1293   Si       0.08624    0.87150    0.96884    1.000
    Si1294   Si       0.01304    0.85907    0.98377    1.000
    N1295    N        0.99817    0.84104    0.94716    1.000
    N1296    N        0.10953    0.84324    0.94554    1.000
    N1297    N        0.00426    0.88957    0.88833    1.000
    Si1298   Si       0.13722    0.86296    0.88255    1.000
    N1299    N        0.16425    0.86738    0.91801    1.000
    N1300    N        0.23194    0.85080    0.97787    1.000
    Si1301   Si       0.20046    0.87817    0.99319    1.000
    Si1302   Si       0.15339    0.84276    0.95156    1.000
    N1303    N        0.15997    0.86409    0.99015    1.000
    N1304    N        0.07248    0.93573    0.04882    1.000
    Si1305   Si       0.02836    0.93813    0.06038    1.000
    N1306    N        0.02520    0.93882    0.10554    1.000
    N1307    N        0.99703    0.90599    0.06122    1.000
    Si1308   Si       0.08316    0.93586    0.00532    1.000
    Si1309   Si       0.98905    0.91375    0.10276    1.000
    N1310    N        0.09500    0.89325    0.00674    1.000
    N1311    N        0.18000    0.92933    0.07131    1.000
    Si1312   Si       0.21652    0.92763    0.04799    1.000
    Si1313   Si       0.15716    0.89497    0.08871    1.000
    N1314    N        0.11616    0.94954    0.09959    1.000
    N1315    N        0.08004    0.92068    0.15437    1.000
    Si1316   Si       0.06423    0.92385    0.19567    1.000
    N1317    N        0.07797    0.89474    0.22338    1.000
    Si1318   Si       0.04825    0.94874    0.14038    1.000
    N1319    N        0.03046    0.94887    0.17977    1.000
    N1320    N        0.14513    0.91329    0.24539    1.000
    N1321    N        0.21000    0.89800    0.23919    1.000
    N1322    N        0.15013    0.90504    0.13067    1.000
    Si1323   Si       0.22424    0.92029    0.16155    1.000
    Si1324   Si       0.11912    0.93546    0.14118    1.000
    Si1325   Si       0.17157    0.94957    0.24719    1.000
    N1326    N        0.24019    0.94782    0.13165    1.000
    Si1327   Si       0.06936    0.91432    0.31788    1.000
    N1328    N        0.08243    0.93381    0.27967    1.000
    Si1329   Si       0.00196    0.93279    0.35201    1.000
    N1330    N        0.09189    0.90539    0.35302    1.000
    N1331    N        0.03722    0.94160    0.32862    1.000
    Si1332   Si       0.10458    0.90133    0.25747    1.000
    N1333    N        0.15887    0.92059    0.34654    1.000
    N1334    N        0.21178    0.90696    0.30257    1.000
    Si1335   Si       0.20075    0.90961    0.34485    1.000
    Si1336   Si       0.23312    0.93586    0.27779    1.000
    N1337    N        0.22111    0.94564    0.36205    1.000
    Si1338   Si       0.12681    0.91111    0.37531    1.000
    N1339    N        0.01557    0.93433    0.39145    1.000
    Si1340   Si       0.02623    0.91651    0.42982    1.000
    N1341    N        0.99062    0.92041    0.45672    1.000
    Si1342   Si       0.98989    0.94060    0.49473    1.000
    Si1343   Si       0.21645    0.90913    0.46065    1.000
    Si1344   Si       0.12452    0.93496    0.48886    1.000
    N1345    N        0.11717    0.89848    0.46574    1.000
    N1346    N        0.17674    0.91809    0.44200    1.000
    Si1347   Si       0.00737    0.91799    0.56598    1.000
    N1348    N        0.10180    0.90691    0.55963    1.000
    N1349    N        0.00443    0.91050    0.52452    1.000
    Si1350   Si       0.08048    0.94347    0.54579    1.000
    N1351    N        0.08301    0.94593    0.50206    1.000
    N1352    N        0.04232    0.94735    0.56731    1.000
    N1353    N        0.01777    0.88931    0.59848    1.000
    N1354    N        0.15229    0.94475    0.52178    1.000
    Si1355   Si       0.19194    0.93141    0.53129    1.000
    N1356    N        0.18259    0.91229    0.57103    1.000
    Si1357   Si       0.13799    0.90647    0.58223    1.000
    N1358    N        0.20900    0.90197    0.50404    1.000
    N1359    N        0.12977    0.92959    0.61806    1.000
    Si1360   Si       0.09551    0.91753    0.64199    1.000
    N1361    N        0.05342    0.92724    0.64843    1.000
    Si1362   Si       0.09261    0.92561    0.71466    1.000
    N1363    N        0.99528    0.92282    0.67680    1.000
    Si1364   Si       0.01973    0.89791    0.64424    1.000
    N1365    N        0.05091    0.94262    0.71754    1.000
    Si1366   Si       0.03442    0.94969    0.67968    1.000
    N1367    N        0.11258    0.93678    0.67825    1.000
    Si1368   Si       0.20729    0.93219    0.70311    1.000
    N1369    N        0.17947    0.92122    0.67014    1.000
    N1370    N        0.23118    0.89766    0.69244    1.000
    Si1371   Si       0.14876    0.94677    0.65351    1.000
    Si1372   Si       0.00994    0.90547    0.79019    1.000
    Si1373   Si       0.08398    0.90683    0.85078    1.000
    N1374    N        0.05972    0.94152    0.86582    1.000
    N1375    N        0.03384    0.94219    0.79538    1.000
    N1376    N        0.99571    0.92080    0.74974    1.000
    N1377    N        0.11156    0.92111    0.82207    1.000
    Si1378   Si       0.02724    0.95326    0.75388    1.000
    N1379    N        0.11577    0.93305    0.75204    1.000
    Si1380   Si       0.12106    0.90348    0.78368    1.000
    N1381    N        0.21993    0.89522    0.80741    1.000
    N1382    N        0.19988    0.92719    0.74556    1.000
    N1383    N        0.01391    0.94695    0.92464    1.000
    Si1384   Si       0.10699    0.92172    0.91750    1.000
    Si1385   Si       0.03610    0.92287    0.95413    1.000
    Si1386   Si       0.01987    0.93100    0.88339    1.000
    N1387    N        0.07412    0.90426    0.94607    1.000
    N1388    N        0.00545    0.90100    0.97706    1.000
    N1389    N        0.10465    0.89220    0.88653    1.000
    N1390    N        0.21707    0.92107    0.90112    1.000
    Si1391   Si       0.18292    0.90737    0.92711    1.000
    Si1392   Si       0.22764    0.94715    0.97180    1.000
    N1393    N        0.14933    0.93230    0.91590    1.000
    N1394    N        0.20174    0.91213    0.96779    1.000
    N1395    N        0.00727    0.97334    0.04381    1.000
    Si1396   Si       0.09207    0.96934    0.06905    1.000
    Si1397   Si       0.01740    0.97570    0.00159    1.000
    N1398    N        0.06973    0.00672    0.06184    1.000
    N1399    N        0.17548    0.98553    0.11437    1.000
    Si1400   Si       0.15580    0.96273    0.08276    1.000
    N1401    N        0.13303    0.98073    0.04906    1.000
    Si1402   Si       0.12955    0.99643    0.01100    1.000
    N1403    N        0.22853    0.95588    0.01348    1.000
    N1404    N        0.06521    0.98770    0.12894    1.000
    Si1405   Si       0.01331    0.98116    0.20150    1.000
    N1406    N        0.08668    0.95690    0.21332    1.000
    N1407    N        0.03032    0.97997    0.24311    1.000
    N1408    N        0.19740    0.94811    0.18031    1.000
    Si1409   Si       0.11645    0.98486    0.20026    1.000
    Si1410   Si       0.17492    0.97837    0.15622    1.000
    Si1411   Si       0.22875    0.96040    0.20656    1.000
    N1412    N        0.14950    0.99030    0.23054    1.000
    N1413    N        0.13445    0.96641    0.16618    1.000
    N1414    N        0.21485    0.96146    0.24561    1.000
    Si1415   Si       0.05791    0.97897    0.33524    1.000
    N1416    N        0.10224    0.97084    0.33594    1.000
    Si1417   Si       0.00438    0.99993    0.27460    1.000
    Si1418   Si       0.07218    0.96740    0.25359    1.000
    N1419    N        0.09440    0.00090    0.27072    1.000
    N1420    N        0.03714    0.00696    0.30423    1.000
    Si1421   Si       0.10707    0.98984    0.37455    1.000
    N1422    N        0.15525    0.96381    0.28680    1.000
    N1423    N        0.16676    0.98916    0.34842    1.000
    Si1424   Si       0.14530    0.95835    0.32811    1.000
    Si1425   Si       0.13743    0.99996    0.27207    1.000
    Si1426   Si       0.23490    0.00267    0.27041    1.000
    N1427    N        0.05757    0.98980    0.37668    1.000
    Si1428   Si       0.05619    0.97046    0.47719    1.000
    Si1429   Si       0.02641    0.97619    0.40456    1.000
    N1430    N        0.04758    0.95592    0.43893    1.000
    N1431    N        0.07809    0.00796    0.47065    1.000
    N1432    N        0.98965    0.99506    0.39861    1.000
    Si1433   Si       0.19748    0.98059    0.37568    1.000
    N1434    N        0.18656    0.98185    0.41809    1.000
    N1435    N        0.23522    0.95132    0.46868    1.000
    Si1436   Si       0.12090    0.00646    0.47328    1.000
    N1437    N        0.12544    0.95148    0.39471    1.000
    N1438    N        0.13353    0.96771    0.46269    1.000
    Si1439   Si       0.22365    0.98218    0.44182    1.000
    Si1440   Si       0.15504    0.95368    0.42947    1.000
    Si1441   Si       0.02631    0.98355    0.58804    1.000
    N1442    N        0.10570    0.97501    0.55991    1.000
    N1443    N        0.05974    0.00434    0.60812    1.000
    N1444    N        0.99297    0.97726    0.61853    1.000
    Si1445   Si       0.09345    0.00932    0.58477    1.000
    N1446    N        0.01669    0.97458    0.49658    1.000
    Si1447   Si       0.16772    0.00938    0.60784    1.000
    N1448    N        0.17385    0.99768    0.56793    1.000
    N1449    N        0.21929    0.96594    0.53312    1.000
    Si1450   Si       0.14345    0.98240    0.54070    1.000
    Si1451   Si       0.21397    0.00397    0.54875    1.000
    N1452    N        0.02274    0.99181    0.67503    1.000
    N1453    N        0.10640    0.99357    0.72238    1.000
    N1454    N        0.00486    0.98846    0.74288    1.000
    N1455    N        0.17207    0.98219    0.64353    1.000
    N1456    N        0.21574    0.97545    0.69756    1.000
    Si1457   Si       0.19712    0.00654    0.72442    1.000
    Si1458   Si       0.03902    0.96492    0.83028    1.000
    N1459    N        0.00292    0.95710    0.85319    1.000
    N1460    N        0.05600    0.00162    0.83898    1.000
    N1461    N        0.16893    0.98796    0.75039    1.000
    N1462    N        0.11236    0.98480    0.79392    1.000
    N1463    N        0.23334    0.98244    0.77346    1.000
    N1464    N        0.12486    0.97515    0.86282    1.000
    Si1465   Si       0.20449    0.98503    0.83512    1.000
    Si1466   Si       0.13306    0.96045    0.82257    1.000
    N1467    N        0.17600    0.95986    0.81167    1.000
    Si1468   Si       0.19493    0.96117    0.77231    1.000
    Si1469   Si       0.12698    0.97585    0.75502    1.000
    Si1470   Si       0.08191    0.97923    0.87839    1.000
    N1471    N        0.08860    0.96261    0.91901    1.000
    Si1472   Si       0.08003    0.98046    0.95766    1.000
    N1473    N        0.10918    0.96680    0.98746    1.000
    Si1474   Si       0.99486    0.98216    0.93813    1.000
    N1475    N        0.04904    0.95347    0.98107    1.000
    N1476    N        0.20821    0.97471    0.94308    1.000
    Si1477   Si       0.15343    0.96993    0.89458    1.000
    N1478    N        0.19089    0.97821    0.87516    1.000
    N1479    N        0.14771    0.00262    0.92472    1.000
    Si1480   Si       0.22108    0.96362    0.90213    1.000
    Si1481   Si       0.17956    0.00662    0.95204    1.000
    N1482    N        0.16790    0.00875    0.99454    1.000
    Si1483   Si       0.26624    0.05500    0.11179    1.000
    N1484    N        0.30497    0.03961    0.10883    1.000
    N1485    N        0.33668    0.05160    0.04827    1.000
    Si1486   Si       0.24987    0.03519    0.04301    1.000
    Si1487   Si       0.32501    0.01114    0.03725    1.000
    N1488    N        0.25843    0.06624    0.07094    1.000
    Si1489   Si       0.33253    0.06738    0.08827    1.000
    N1490    N        0.41831    0.06689    0.06917    1.000
    Si1491   Si       0.41664    0.04574    0.03200    1.000
    Si1492   Si       0.40346    0.05049    0.10719    1.000
    N1493    N        0.45599    0.05431    0.01472    1.000
    Si1494   Si       0.48727    0.02738    0.02736    1.000
    Si1495   Si       0.27643    0.01715    0.20915    1.000
    Si1496   Si       0.35258    0.01839    0.21481    1.000
    N1497    N        0.27317    0.05812    0.20003    1.000
    N1498    N        0.36815    0.05186    0.19168    1.000
    Si1499   Si       0.45949    0.05921    0.24238    1.000
    N1500    N        0.48756    0.03763    0.16496    1.000
    N1501    N        0.43159    0.06006    0.13832    1.000
    N1502    N        0.43484    0.05493    0.20758    1.000
    Si1503   Si       0.44389    0.03373    0.16978    1.000
    N1504    N        0.30094    0.04191    0.30806    1.000
    Si1505   Si       0.30949    0.01574    0.27252    1.000
    Si1506   Si       0.33619    0.06016    0.32537    1.000
    N1507    N        0.33595    0.03865    0.25069    1.000
    Si1508   Si       0.26186    0.06454    0.31028    1.000
    N1509    N        0.37898    0.03997    0.32831    1.000
    N1510    N        0.43636    0.04808    0.27825    1.000
    N1511    N        0.44372    0.05806    0.36399    1.000
    Si1512   Si       0.40089    0.05262    0.36416    1.000
    N1513    N        0.27156    0.05381    0.41060    1.000
    Si1514   Si       0.35329    0.03184    0.41950    1.000
    N1515    N        0.31055    0.02152    0.45195    1.000
    Si1516   Si       0.28895    0.01509    0.41408    1.000
    N1517    N        0.32492    0.00910    0.39193    1.000
    Si1518   Si       0.23829    0.03559    0.49028    1.000
    Si1519   Si       0.30286    0.06607    0.45333    1.000
    N1520    N        0.44386    0.06538    0.48497    1.000
    N1521    N        0.38853    0.02299    0.39561    1.000
    Si1522   Si       0.48156    0.04887    0.46779    1.000
    Si1523   Si       0.47140    0.06012    0.39726    1.000
    N1524    N        0.47486    0.03004    0.42906    1.000
    N1525    N        0.37459    0.03433    0.46136    1.000
    Si1526   Si       0.35119    0.03157    0.54017    1.000
    Si1527   Si       0.28672    0.03448    0.58406    1.000
    N1528    N        0.31302    0.05247    0.55244    1.000
    N1529    N        0.24463    0.02123    0.57416    1.000
    Si1530   Si       0.35441    0.01274    0.61071    1.000
    N1531    N        0.26984    0.06167    0.61329    1.000
    Si1532   Si       0.42218    0.04357    0.51663    1.000
    N1533    N        0.43983    0.04446    0.55698    1.000
    N1534    N        0.37563    0.02018    0.57519    1.000
    N1535    N        0.38065    0.05923    0.51952    1.000
    Si1536   Si       0.41833    0.01546    0.58200    1.000
    N1537    N        0.24461    0.02237    0.66830    1.000
    N1538    N        0.30840    0.04746    0.67560    1.000
    Si1539   Si       0.31430    0.03172    0.71484    1.000
    Si1540   Si       0.27059    0.05422    0.65757    1.000
    Si1541   Si       0.47186    0.02248    0.63520    1.000
    N1542    N        0.42813    0.02246    0.62421    1.000
    N1543    N        0.36519    0.04468    0.63994    1.000
    Si1544   Si       0.40599    0.04023    0.65657    1.000
    N1545    N        0.40057    0.02063    0.69391    1.000
    N1546    N        0.28176    0.02980    0.85284    1.000
    N1547    N        0.26587    0.05607    0.78889    1.000
    N1548    N        0.35497    0.03224    0.81498    1.000
    Si1549   Si       0.27123    0.06528    0.83086    1.000
    Si1550   Si       0.44703    0.02080    0.83860    1.000
    Si1551   Si       0.37825    0.04705    0.84951    1.000
    N1552    N        0.41429    0.04673    0.82593    1.000
    Si1553   Si       0.39021    0.04880    0.79010    1.000
    N1554    N        0.40188    0.01594    0.76647    1.000
    N1555    N        0.48913    0.02887    0.82559    1.000
    N1556    N        0.32682    0.06196    0.91016    1.000
    N1557    N        0.26831    0.03396    0.94602    1.000
    N1558    N        0.32595    0.05461    0.97799    1.000
    Si1559   Si       0.34459    0.01680    0.96700    1.000
    Si1560   Si       0.30101    0.06530    0.94319    1.000
    N1561    N        0.45695    0.04796    0.94386    1.000
    N1562    N        0.37796    0.01903    0.88092    1.000
    Si1563   Si       0.36951    0.05373    0.91164    1.000
    N1564    N        0.45444    0.04056    0.87838    1.000
    N1565    N        0.38075    0.02353    0.94272    1.000
    Si1566   Si       0.41582    0.04766    0.95842    1.000
    Si1567   Si       0.46389    0.01542    0.91205    1.000
    N1568    N        0.39611    0.06072    0.99525    1.000
    N1569    N        0.31197    0.10462    0.08827    1.000
    Si1570   Si       0.27736    0.10442    0.06213    1.000
    N1571    N        0.28831    0.09689    0.02028    1.000
    Si1572   Si       0.33114    0.08142    0.01344    1.000
    N1573    N        0.35758    0.11833    0.00014    1.000
    Si1574   Si       0.45018    0.09555    0.07989    1.000
    N1575    N        0.46659    0.11722    0.04489    1.000
    Si1576   Si       0.45858    0.09729    0.00593    1.000
    N1577    N        0.42316    0.11962    0.10876    1.000
    N1578    N        0.48380    0.08032    0.10181    1.000
    N1579    N        0.36606    0.06770    0.11763    1.000
    Si1580   Si       0.29947    0.11472    0.13080    1.000
    N1581    N        0.26266    0.09250    0.13289    1.000
    N1582    N        0.32096    0.09810    0.16709    1.000
    Si1583   Si       0.29299    0.09498    0.19886    1.000
    N1584    N        0.31941    0.10600    0.23458    1.000
    Si1585   Si       0.35741    0.07856    0.15803    1.000
    N1586    N        0.25922    0.12338    0.19407    1.000
    Si1587   Si       0.48761    0.12104    0.20532    1.000
    N1588    N        0.47423    0.10015    0.24055    1.000
    Si1589   Si       0.39831    0.07829    0.20775    1.000
    Si1590   Si       0.43091    0.10399    0.15015    1.000
    N1591    N        0.39317    0.10624    0.17385    1.000
    N1592    N        0.46956    0.10225    0.16875    1.000
    N1593    N        0.34886    0.09172    0.29912    1.000
    N1594    N        0.32228    0.08008    0.36133    1.000
    N1595    N        0.25267    0.10213    0.28708    1.000
    Si1596   Si       0.34543    0.07985    0.25690    1.000
    N1597    N        0.25218    0.07766    0.35254    1.000
    N1598    N        0.41901    0.09990    0.31535    1.000
    Si1599   Si       0.45488    0.08841    0.33415    1.000
    Si1600   Si       0.40042    0.07090    0.29105    1.000
    N1601    N        0.38811    0.08335    0.25052    1.000
    N1602    N        0.45048    0.12778    0.35992    1.000
    Si1603   Si       0.24899    0.11017    0.48794    1.000
    N1604    N        0.32663    0.08044    0.48957    1.000
    Si1605   Si       0.28482    0.08453    0.38248    1.000
    Si1606   Si       0.34865    0.09968    0.39292    1.000
    N1607    N        0.33787    0.07523    0.42633    1.000
    N1608    N        0.28407    0.12056    0.40716    1.000
    N1609    N        0.25965    0.07093    0.47121    1.000
    Si1610   Si       0.42538    0.11409    0.39397    1.000
    N1611    N        0.39374    0.10650    0.46053    1.000
    N1612    N        0.45154    0.09268    0.42095    1.000
    N1613    N        0.38806    0.09157    0.38102    1.000
    Si1614   Si       0.36859    0.07410    0.47765    1.000
    Si1615   Si       0.43635    0.09920    0.46065    1.000
    Si1616   Si       0.31307    0.09031    0.52898    1.000
    N1617    N        0.27250    0.10629    0.52349    1.000
    N1618    N        0.26406    0.12533    0.58741    1.000
    N1619    N        0.44513    0.11728    0.54411    1.000
    N1620    N        0.45112    0.10186    0.60364    1.000
    Si1621   Si       0.46007    0.08096    0.56611    1.000
    N1622    N        0.38559    0.13125    0.58358    1.000
    Si1623   Si       0.28060    0.11220    0.62719    1.000
    Si1624   Si       0.25823    0.11876    0.69849    1.000
    Si1625   Si       0.33918    0.07365    0.65981    1.000
    N1626    N        0.32683    0.10259    0.62998    1.000
    N1627    N        0.24743    0.09725    0.73575    1.000
    Si1628   Si       0.33465    0.10894    0.72507    1.000
    N1629    N        0.26343    0.09554    0.66451    1.000
    N1630    N        0.35963    0.09332    0.69218    1.000
    N1631    N        0.31575    0.07019    0.73895    1.000
    N1632    N        0.49382    0.12482    0.73014    1.000
    N1633    N        0.42225    0.08054    0.66357    1.000
    Si1634   Si       0.39838    0.11244    0.68194    1.000
    Si1635   Si       0.46024    0.09377    0.64525    1.000
    N1636    N        0.30626    0.09018    0.83851    1.000
    Si1637   Si       0.28045    0.08302    0.76004    1.000
    N1638    N        0.29268    0.12143    0.77847    1.000
    N1639    N        0.39511    0.08694    0.77123    1.000
    N1640    N        0.48398    0.09599    0.84472    1.000
    N1641    N        0.48078    0.08311    0.77437    1.000
    Si1642   Si       0.40241    0.12438    0.75249    1.000
    N1643    N        0.37382    0.08066    0.87407    1.000
    Si1644   Si       0.47613    0.12893    0.77204    1.000
    Si1645   Si       0.33058    0.08884    0.87535    1.000
    Si1646   Si       0.27146    0.11577    0.98558    1.000
    N1647    N        0.29826    0.10964    0.94820    1.000
    N1648    N        0.24994    0.12733    0.90285    1.000
    Si1649   Si       0.39856    0.10956    0.89854    1.000
    N1650    N        0.42886    0.12153    0.98476    1.000
    Si1651   Si       0.39038    0.10155    0.97840    1.000
    N1652    N        0.44264    0.11584    0.89875    1.000
    Si1653   Si       0.46909    0.08263    0.88115    1.000
    N1654    N        0.39154    0.08474    0.93720    1.000
    N1655    N        0.25438    0.14007    0.06250    1.000
    Si1656   Si       0.25210    0.17220    0.02974    1.000
    Si1657   Si       0.36701    0.15660    0.01456    1.000
    Si1658   Si       0.39281    0.14923    0.09752    1.000
    N1659    N        0.37663    0.15672    0.05696    1.000
    N1660    N        0.46976    0.17566    0.01050    1.000
    N1661    N        0.41347    0.18629    0.10378    1.000
    Si1662   Si       0.33273    0.17995    0.12413    1.000
    Si1663   Si       0.25957    0.17986    0.14603    1.000
    N1664    N        0.29786    0.15770    0.14006    1.000
    Si1665   Si       0.25511    0.15741    0.22012    1.000
    N1666    N        0.35182    0.16224    0.20049    1.000
    Si1667   Si       0.32736    0.14979    0.23560    1.000
    N1668    N        0.28996    0.17022    0.24060    1.000
    N1669    N        0.36322    0.14955    0.12771    1.000
    N1670    N        0.41207    0.17319    0.17227    1.000
    N1671    N        0.47101    0.16155    0.20115    1.000
    Si1672   Si       0.37786    0.14704    0.16959    1.000
    N1673    N        0.47063    0.19233    0.13738    1.000
    N1674    N        0.30332    0.14966    0.31592    1.000
    N1675    N        0.35288    0.15832    0.26992    1.000
    Si1676   Si       0.34348    0.13500    0.30730    1.000
    Si1677   Si       0.35974    0.17440    0.36829    1.000
    N1678    N        0.37476    0.15054    0.33266    1.000
    N1679    N        0.42892    0.16119    0.28826    1.000
    Si1680   Si       0.48300    0.15640    0.35946    1.000
    Si1681   Si       0.41914    0.14388    0.32869    1.000
    Si1682   Si       0.39136    0.17942    0.27645    1.000
    N1683    N        0.25835    0.14839    0.46684    1.000
    Si1684   Si       0.31203    0.15377    0.41905    1.000
    N1685    N        0.34827    0.14356    0.39822    1.000
    N1686    N        0.33387    0.15381    0.45701    1.000
    Si1687   Si       0.24782    0.13623    0.42646    1.000
    Si1688   Si       0.34543    0.18341    0.48945    1.000
    Si1689   Si       0.26170    0.18135    0.49465    1.000
    Si1690   Si       0.37656    0.14341    0.43764    1.000
    N1691    N        0.39403    0.17465    0.46569    1.000
    N1692    N        0.45672    0.13759    0.47179    1.000
    N1693    N        0.41559    0.15157    0.41282    1.000
    Si1694   Si       0.43559    0.16796    0.44960    1.000
    N1695    N        0.47869    0.18055    0.39454    1.000
    N1696    N        0.34027    0.16765    0.60330    1.000
    Si1697   Si       0.35461    0.15399    0.56111    1.000
    Si1698   Si       0.27820    0.14494    0.55240    1.000
    N1699    N        0.24270    0.16312    0.53166    1.000
    Si1700   Si       0.29828    0.18288    0.61354    1.000
    Si1701   Si       0.36036    0.13146    0.61955    1.000
    N1702    N        0.32157    0.12882    0.54966    1.000
    N1703    N        0.28890    0.18790    0.57143    1.000
    N1704    N        0.36825    0.17775    0.52623    1.000
    N1705    N        0.44801    0.16961    0.59956    1.000
    Si1706   Si       0.46304    0.14325    0.51710    1.000
    N1707    N        0.44626    0.18018    0.53025    1.000
    Si1708   Si       0.42957    0.13284    0.58234    1.000
    N1709    N        0.27444    0.15821    0.64057    1.000
    N1710    N        0.29809    0.13298    0.71276    1.000
    Si1711   Si       0.36051    0.18443    0.73804    1.000
    N1712    N        0.36376    0.13981    0.73886    1.000
    Si1713   Si       0.38801    0.18475    0.66237    1.000
    N1714    N        0.42468    0.12609    0.71409    1.000
    N1715    N        0.38138    0.14337    0.65576    1.000
    N1716    N        0.46874    0.13141    0.66437    1.000
    Si1717   Si       0.46368    0.14373    0.70653    1.000
    Si1718   Si       0.46130    0.16684    0.63988    1.000
    N1719    N        0.43302    0.18510    0.66605    1.000
    N1720    N        0.33261    0.15738    0.82435    1.000
    N1721    N        0.26127    0.14491    0.83219    1.000
    N1722    N        0.24941    0.17083    0.76348    1.000
    Si1723   Si       0.25090    0.17966    0.80758    1.000
    Si1724   Si       0.34723    0.16309    0.86526    1.000
    Si1725   Si       0.30039    0.12827    0.82124    1.000
    Si1726   Si       0.28897    0.15723    0.75065    1.000
    N1727    N        0.43506    0.14369    0.77507    1.000
    Si1728   Si       0.41226    0.17910    0.86784    1.000
    Si1729   Si       0.42273    0.18188    0.78932    1.000
    N1730    N        0.40209    0.17981    0.82700    1.000
    Si1731   Si       0.29031    0.13521    0.91455    1.000
    N1732    N        0.28445    0.17839    0.92287    1.000
    N1733    N        0.27037    0.15869    0.99223    1.000
    N1734    N        0.32367    0.13034    0.88637    1.000
    N1735    N        0.45483    0.17822    0.87448    1.000
    N1736    N        0.44508    0.17824    0.94054    1.000
    Si1737   Si       0.43669    0.16484    0.98364    1.000
    N1738    N        0.38645    0.14992    0.88582    1.000
    N1739    N        0.39726    0.18054    0.99267    1.000
    Si1740   Si       0.46118    0.15360    0.90780    1.000
    N1741    N        0.27626    0.20488    0.04352    1.000
    Si1742   Si       0.28916    0.21321    0.08378    1.000
    Si1743   Si       0.30468    0.21762    0.01282    1.000
    N1744    N        0.25612    0.20618    0.11113    1.000
    N1745    N        0.34412    0.19586    0.01535    1.000
    N1746    N        0.32823    0.19307    0.08287    1.000
    Si1747   Si       0.36134    0.19849    0.05660    1.000
    N1748    N        0.46220    0.22462    0.07691    1.000
    Si1749   Si       0.42184    0.22556    0.09142    1.000
    N1750    N        0.39161    0.22730    0.06088    1.000
    Si1751   Si       0.49328    0.21230    0.99714    1.000
    Si1752   Si       0.49103    0.19980    0.09870    1.000
    N1753    N        0.33312    0.21869    0.14175    1.000
    N1754    N        0.33035    0.22359    0.22509    1.000
    N1755    N        0.25110    0.19086    0.18755    1.000
    N1756    N        0.26600    0.24392    0.23498    1.000
    Si1757   Si       0.36621    0.20097    0.21250    1.000
    N1758    N        0.42123    0.24074    0.13171    1.000
    Si1759   Si       0.43519    0.18703    0.20826    1.000
    N1760    N        0.40223    0.19508    0.23648    1.000
    Si1761   Si       0.42913    0.19862    0.14362    1.000
    N1762    N        0.44752    0.22830    0.19841    1.000
    N1763    N        0.37782    0.23492    0.18818    1.000
    Si1764   Si       0.48810    0.24053    0.18956    1.000
    N1765    N        0.29641    0.21855    0.29116    1.000
    N1766    N        0.32924    0.20018    0.34976    1.000
    N1767    N        0.25194    0.20229    0.34331    1.000
    Si1768   Si       0.29241    0.18920    0.32552    1.000
    Si1769   Si       0.33399    0.24285    0.36238    1.000
    Si1770   Si       0.29515    0.21395    0.24775    1.000
    N1771    N        0.39665    0.21857    0.30068    1.000
    N1772    N        0.46073    0.22710    0.27992    1.000
    Si1773   Si       0.40245    0.22286    0.34556    1.000
    Si1774   Si       0.45282    0.19353    0.30662    1.000
    N1775    N        0.43017    0.18691    0.34481    1.000
    N1776    N        0.43297    0.24531    0.37631    1.000
    N1777    N        0.24960    0.23619    0.40249    1.000
    N1778    N        0.24747    0.21832    0.47831    1.000
    Si1779   Si       0.25328    0.19586    0.38668    1.000
    N1780    N        0.35054    0.22078    0.46848    1.000
    Si1781   Si       0.28813    0.23028    0.42234    1.000
    N1782    N        0.28846    0.18812    0.41348    1.000
    N1783    N        0.43719    0.21216    0.43534    1.000
    N1784    N        0.38728    0.20393    0.38454    1.000
    N1785    N        0.40875    0.23158    0.49536    1.000
    Si1786   Si       0.39512    0.22106    0.45689    1.000
    Si1787   Si       0.43511    0.19826    0.39123    1.000
    Si1788   Si       0.46559    0.24263    0.44862    1.000
    Si1789   Si       0.30752    0.21375    0.54392    1.000
    N1790    N        0.34272    0.23007    0.56795    1.000
    Si1791   Si       0.34935    0.20886    0.60574    1.000
    N1792    N        0.30534    0.18927    0.50767    1.000
    N1793    N        0.40927    0.22144    0.56213    1.000
    Si1794   Si       0.44724    0.20193    0.57060    1.000
    N1795    N        0.47762    0.23292    0.56996    1.000
    Si1796   Si       0.40708    0.19831    0.52455    1.000
    N1797    N        0.31597    0.21981    0.63144    1.000
    N1798    N        0.47350    0.18733    0.71878    1.000
    Si1799   Si       0.45116    0.21419    0.69216    1.000
    N1800    N        0.47929    0.23624    0.66682    1.000
    N1801    N        0.38339    0.21497    0.63064    1.000
    Si1802   Si       0.38346    0.24268    0.70445    1.000
    N1803    N        0.36864    0.20063    0.69775    1.000
    N1804    N        0.28535    0.20676    0.81089    1.000
    N1805    N        0.34847    0.23205    0.80331    1.000
    Si1806   Si       0.32443    0.19626    0.80042    1.000
    Si1807   Si       0.26602    0.24204    0.82990    1.000
    N1808    N        0.25194    0.21984    0.86553    1.000
    N1809    N        0.32008    0.18617    0.75751    1.000
    N1810    N        0.39300    0.19893    0.76331    1.000
    N1811    N        0.45908    0.20754    0.79265    1.000
    Si1812   Si       0.38360    0.23817    0.77824    1.000
    Si1813   Si       0.48112    0.21308    0.86975    1.000
    Si1814   Si       0.28865    0.20790    0.89092    1.000
    N1815    N        0.33044    0.20025    0.87918    1.000
    N1816    N        0.28091    0.22250    0.97579    1.000
    Si1817   Si       0.35848    0.22738    0.89980    1.000
    N1818    N        0.36043    0.21675    0.94142    1.000
    Si1819   Si       0.26029    0.18601    0.95917    1.000
    Si1820   Si       0.45302    0.22355    0.93459    1.000
    N1821    N        0.46363    0.23599    0.97497    1.000
    Si1822   Si       0.37066    0.21297    0.98240    1.000
    N1823    N        0.39829    0.21866    0.88160    1.000
    N1824    N        0.48940    0.21994    0.91046    1.000
    N1825    N        0.30161    0.25534    0.09139    1.000
    Si1826   Si       0.35112    0.28048    0.00890    1.000
    Si1827   Si       0.29712    0.27789    0.05476    1.000
    N1828    N        0.32094    0.25504    0.02655    1.000
    N1829    N        0.27000    0.29627    0.02460    1.000
    N1830    N        0.36532    0.28249    0.11569    1.000
    N1831    N        0.44805    0.27211    0.03130    1.000
    Si1832   Si       0.40720    0.25823    0.03336    1.000
    N1833    N        0.37964    0.29212    0.04368    1.000
    Si1834   Si       0.48296    0.25718    0.05365    1.000
    N1835    N        0.43485    0.30277    0.11149    1.000
    N1836    N        0.38424    0.25281    0.99644    1.000
    Si1837   Si       0.32937    0.25863    0.12732    1.000
    N1838    N        0.34582    0.29265    0.21750    1.000
    Si1839   Si       0.27427    0.28883    0.17679    1.000
    N1840    N        0.31125    0.27079    0.16613    1.000
    Si1841   Si       0.33877    0.25396    0.19548    1.000
    Si1842   Si       0.40593    0.28203    0.13396    1.000
    N1843    N        0.49224    0.26853    0.15657    1.000
    N1844    N        0.41240    0.29110    0.17578    1.000
    Si1845   Si       0.41341    0.25703    0.20024    1.000
    Si1846   Si       0.37972    0.30022    0.24553    1.000
    N1847    N        0.40804    0.26678    0.24156    1.000
    N1848    N        0.30443    0.26536    0.34033    1.000
    N1849    N        0.29269    0.28869    0.28060    1.000
    Si1850   Si       0.27928    0.25564    0.30535    1.000
    Si1851   Si       0.26372    0.28821    0.24882    1.000
    N1852    N        0.36239    0.29478    0.28700    1.000
    Si1853   Si       0.38523    0.29032    0.32282    1.000
    N1854    N        0.42338    0.27849    0.30641    1.000
    N1855    N        0.37541    0.25809    0.35208    1.000
    Si1856   Si       0.42079    0.24630    0.27652    1.000
    N1857    N        0.49309    0.28930    0.29243    1.000
    Si1858   Si       0.34048    0.25710    0.44478    1.000
    Si1859   Si       0.26930    0.25311    0.48984    1.000
    N1860    N        0.29716    0.25287    0.45809    1.000
    N1861    N        0.24378    0.28762    0.48270    1.000
    N1862    N        0.32616    0.24623    0.40430    1.000
    N1863    N        0.34125    0.30157    0.44856    1.000
    N1864    N        0.46800    0.28078    0.42386    1.000
    N1865    N        0.46474    0.26760    0.48458    1.000
    Si1866   Si       0.46506    0.27505    0.37920    1.000
    Si1867   Si       0.39505    0.26228    0.39219    1.000
    N1868    N        0.38599    0.25810    0.43316    1.000
    Si1869   Si       0.45456    0.30546    0.45868    1.000
    N1870    N        0.40045    0.30689    0.39681    1.000
    Si1871   Si       0.27604    0.27929    0.56119    1.000
    N1872    N        0.26697    0.25406    0.59740    1.000
    N1873    N        0.28556    0.25013    0.52906    1.000
    Si1874   Si       0.33985    0.30182    0.59862    1.000
    N1875    N        0.37818    0.28176    0.59838    1.000
    N1876    N        0.39655    0.28493    0.53373    1.000
    Si1877   Si       0.47510    0.27751    0.57553    1.000
    Si1878   Si       0.38055    0.25471    0.56144    1.000
    Si1879   Si       0.42460    0.27039    0.50351    1.000
    Si1880   Si       0.41809    0.30328    0.60643    1.000
    Si1881   Si       0.34112    0.29718    0.66979    1.000
    Si1882   Si       0.29157    0.25469    0.63407    1.000
    N1883    N        0.24976    0.28875    0.72759    1.000
    N1884    N        0.26747    0.25664    0.66877    1.000
    N1885    N        0.31738    0.28995    0.70372    1.000
    Si1886   Si       0.27590    0.29211    0.69245    1.000
    N1887    N        0.31611    0.29305    0.63199    1.000
    Si1888   Si       0.33360    0.28840    0.74317    1.000
    N1889    N        0.43305    0.26740    0.62602    1.000
    N1890    N        0.48904    0.25304    0.73475    1.000
    Si1891   Si       0.46995    0.27172    0.64519    1.000
    Si1892   Si       0.45769    0.27533    0.71409    1.000
    N1893    N        0.36605    0.25768    0.74235    1.000
    N1894    N        0.37224    0.26861    0.67105    1.000
    Si1895   Si       0.39111    0.25583    0.63228    1.000
    N1896    N        0.46348    0.29831    0.67897    1.000
    N1897    N        0.42720    0.24459    0.70952    1.000
    Si1898   Si       0.32772    0.26923    0.80797    1.000
    N1899    N        0.30004    0.26747    0.84213    1.000
    Si1900   Si       0.26137    0.28998    0.76997    1.000
    N1901    N        0.30398    0.28129    0.77308    1.000
    N1902    N        0.24446    0.25646    0.79509    1.000
    N1903    N        0.45389    0.24323    0.85356    1.000
    N1904    N        0.48181    0.27725    0.80295    1.000
    N1905    N        0.41213    0.25953    0.80236    1.000
    Si1906   Si       0.39848    0.29483    0.82441    1.000
    N1907    N        0.40923    0.29829    0.86636    1.000
    Si1908   Si       0.45157    0.24715    0.81053    1.000
    N1909    N        0.35560    0.26942    0.88889    1.000
    N1910    N        0.26786    0.28854    0.95344    1.000
    Si1911   Si       0.31289    0.27522    0.88152    1.000
    Si1912   Si       0.27054    0.24804    0.94376    1.000
    N1913    N        0.29627    0.24587    0.90948    1.000
    Si1914   Si       0.46379    0.27620    0.99028    1.000
    Si1915   Si       0.42041    0.25607    0.87934    1.000
    N1916    N        0.43337    0.26167    0.91820    1.000
    N1917    N        0.26143    0.32956    0.07965    1.000
    Si1918   Si       0.30103    0.34533    0.08065    1.000
    N1919    N        0.32380    0.31229    0.06199    1.000
    Si1920   Si       0.36288    0.30926    0.08045    1.000
    N1921    N        0.32503    0.34754    0.11792    1.000
    N1922    N        0.47508    0.35097    0.01427    1.000
    Si1923   Si       0.47304    0.31920    0.09909    1.000
    N1924    N        0.38106    0.34794    0.08711    1.000
    N1925    N        0.46219    0.35868    0.08125    1.000
    Si1926   Si       0.29870    0.35273    0.15131    1.000
    N1927    N        0.27007    0.31992    0.14739    1.000
    Si1928   Si       0.31806    0.32710    0.21708    1.000
    N1929    N        0.32475    0.35660    0.18504    1.000
    N1930    N        0.27804    0.30904    0.21464    1.000
    N1931    N        0.46192    0.33672    0.18902    1.000
    N1932    N        0.39830    0.36058    0.16224    1.000
    N1933    N        0.39939    0.33727    0.23239    1.000
    Si1934   Si       0.41847    0.33281    0.19174    1.000
    N1935    N        0.31424    0.34059    0.32097    1.000
    Si1936   Si       0.32388    0.31742    0.28415    1.000
    Si1937   Si       0.35035    0.34530    0.35461    1.000
    N1938    N        0.33646    0.34691    0.25275    1.000
    N1939    N        0.25506    0.30795    0.34932    1.000
    Si1940   Si       0.29750    0.30769    0.34824    1.000
    N1941    N        0.38675    0.33120    0.33473    1.000
    N1942    N        0.44851    0.34357    0.29422    1.000
    N1943    N        0.45976    0.31613    0.35506    1.000
    Si1944   Si       0.45740    0.30574    0.31124    1.000
    N1945    N        0.32571    0.31767    0.37767    1.000
    N1946    N        0.27108    0.31305    0.42096    1.000
    Si1947   Si       0.33215    0.33894    0.47183    1.000
    Si1948   Si       0.25749    0.32280    0.46166    1.000
    Si1949   Si       0.31429    0.31896    0.41877    1.000
    N1950    N        0.29035    0.33611    0.48856    1.000
    Si1951   Si       0.24202    0.31790    0.38863    1.000
    N1952    N        0.31779    0.36155    0.43559    1.000
    Si1953   Si       0.42583    0.33671    0.37763    1.000
    N1954    N        0.48407    0.33638    0.46626    1.000
    Si1955   Si       0.48676    0.35073    0.42692    1.000
    N1956    N        0.38032    0.35060    0.43866    1.000
    Si1957   Si       0.38501    0.30667    0.43812    1.000
    N1958    N        0.41411    0.30725    0.47544    1.000
    N1959    N        0.44532    0.35084    0.41410    1.000
    N1960    N        0.25818    0.33735    0.59661    1.000
    N1961    N        0.35317    0.33639    0.50931    1.000
    N1962    N        0.35075    0.34805    0.58935    1.000
    Si1963   Si       0.33599    0.34064    0.54863    1.000
    N1964    N        0.31291    0.30291    0.56513    1.000
    Si1965   Si       0.39440    0.32244    0.51123    1.000
    N1966    N        0.41215    0.35369    0.53563    1.000
    Si1967   Si       0.44569    0.35405    0.56126    1.000
    N1968    N        0.44871    0.31190    0.57710    1.000
    N1969    N        0.48032    0.36116    0.53479    1.000
    N1970    N        0.35929    0.33630    0.67851    1.000
    Si1971   Si       0.34313    0.35316    0.71700    1.000
    Si1972   Si       0.28723    0.32812    0.62583    1.000
    N1973    N        0.26769    0.32478    0.66561    1.000
    Si1974   Si       0.45049    0.33770    0.66986    1.000
    N1975    N        0.42234    0.36145    0.69343    1.000
    Si1976   Si       0.39263    0.35891    0.66200    1.000
    N1977    N        0.41939    0.33419    0.63761    1.000
    N1978    N        0.45643    0.30780    0.74487    1.000
    Si1979   Si       0.33983    0.33838    0.79563    1.000
    N1980    N        0.30364    0.34117    0.82311    1.000
    N1981    N        0.24554    0.32921    0.78158    1.000
    Si1982   Si       0.31374    0.34774    0.86463    1.000
    N1983    N        0.34727    0.32947    0.75278    1.000
    Si1984   Si       0.26701    0.35772    0.80446    1.000
    N1985    N        0.35627    0.30178    0.81526    1.000
    N1986    N        0.47616    0.33581    0.85345    1.000
    Si1987   Si       0.44621    0.33704    0.77434    1.000
    N1988    N        0.42197    0.32775    0.81160    1.000
    Si1989   Si       0.43281    0.33902    0.85717    1.000
    N1990    N        0.48884    0.34311    0.78607    1.000
    N1991    N        0.35501    0.34873    0.87752    1.000
    N1992    N        0.24245    0.34641    0.92072    1.000
    Si1993   Si       0.26198    0.30863    0.91350    1.000
    N1994    N        0.30131    0.31580    0.89424    1.000
    N1995    N        0.27256    0.34854    0.98308    1.000
    Si1996   Si       0.28931    0.30867    0.98738    1.000
    N1997    N        0.33313    0.31069    0.98376    1.000
    Si1998   Si       0.36274    0.33641    0.96435    1.000
    Si1999   Si       0.37169    0.30997    0.89011    1.000
    N2000    N        0.44029    0.30522    0.97013    1.000
    N2001    N        0.38523    0.31712    0.93133    1.000
    N2002    N        0.39318    0.35107    0.99267    1.000
    N2003    N        0.44329    0.33887    0.90698    1.000
    Si2004   Si       0.43737    0.34382    0.99083    1.000
    Si2005   Si       0.48706    0.33881    0.89506    1.000
    Si2006   Si       0.42863    0.30322    0.92885    1.000
    N2007    N        0.29684    0.38854    0.07208    1.000
    N2008    N        0.28733    0.40683    0.00607    1.000
    Si2009   Si       0.31345    0.41477    0.04083    1.000
    N2010    N        0.35380    0.40108    0.03542    1.000
    Si2011   Si       0.27688    0.40997    0.10377    1.000
    Si2012   Si       0.24233    0.39897    0.01008    1.000
    Si2013   Si       0.38719    0.38923    0.01343    1.000
    Si2014   Si       0.46651    0.39752    0.11174    1.000
    Si2015   Si       0.46896    0.38645    0.04297    1.000
    N2016    N        0.42384    0.38871    0.03942    1.000
    N2017    N        0.41750    0.39698    0.10960    1.000
    Si2018   Si       0.41811    0.36780    0.07712    1.000
    N2019    N        0.27834    0.39096    0.14152    1.000
    N2020    N        0.25372    0.40018    0.20991    1.000
    N2021    N        0.35633    0.40207    0.14227    1.000
    Si2022   Si       0.34590    0.39532    0.18488    1.000
    Si2023   Si       0.27318    0.41683    0.17560    1.000
    Si2024   Si       0.36469    0.36291    0.12571    1.000
    N2025    N        0.45829    0.39974    0.15346    1.000
    N2026    N        0.36829    0.40164    0.22113    1.000
    Si2027   Si       0.47227    0.38014    0.18762    1.000
    Si2028   Si       0.41209    0.40226    0.15201    1.000
    N2029    N        0.46694    0.39473    0.22659    1.000
    Si2030   Si       0.29303    0.37898    0.31221    1.000
    N2031    N        0.26632    0.39439    0.34231    1.000
    N2032    N        0.26635    0.38171    0.27669    1.000
    N2033    N        0.32278    0.41091    0.31600    1.000
    Si2034   Si       0.26624    0.41516    0.24954    1.000
    Si2035   Si       0.34301    0.42041    0.35193    1.000
    Si2036   Si       0.46972    0.37037    0.26418    1.000
    N2037    N        0.42396    0.37611    0.35588    1.000
    N2038    N        0.39392    0.38784    0.28819    1.000
    N2039    N        0.46362    0.40591    0.28990    1.000
    Si2040   Si       0.37526    0.36986    0.25069    1.000
    Si2041   Si       0.41317    0.36194    0.31777    1.000
    N2042    N        0.34276    0.41687    0.44252    1.000
    N2043    N        0.34639    0.38428    0.37615    1.000
    N2044    N        0.28629    0.40519    0.48786    1.000
    Si2045   Si       0.30144    0.40160    0.44847    1.000
    Si2046   Si       0.35529    0.38085    0.41706    1.000
    N2047    N        0.26354    0.41194    0.42482    1.000
    Si2048   Si       0.48943    0.40845    0.38772    1.000
    N2049    N        0.41109    0.39552    0.47630    1.000
    N2050    N        0.39806    0.40534    0.41508    1.000
    Si2051   Si       0.41578    0.41709    0.37709    1.000
    Si2052   Si       0.41595    0.37134    0.43987    1.000
    N2053    N        0.30713    0.37430    0.54829    1.000
    Si2054   Si       0.26971    0.37501    0.57414    1.000
    N2055    N        0.25877    0.41009    0.59762    1.000
    Si2056   Si       0.33002    0.41347    0.54829    1.000
    Si2057   Si       0.27771    0.36894    0.51211    1.000
    Si2058   Si       0.34102    0.38328    0.61545    1.000
    N2059    N        0.33911    0.41983    0.59033    1.000
    N2060    N        0.36539    0.41024    0.52584    1.000
    N2061    N        0.24277    0.37354    0.53736    1.000
    N2062    N        0.45430    0.38165    0.59469    1.000
    Si2063   Si       0.40434    0.39385    0.51877    1.000
    Si2064   Si       0.48435    0.41067    0.53274    1.000
    N2065    N        0.43982    0.41507    0.53359    1.000
    Si2066   Si       0.28438    0.39194    0.73790    1.000
    N2067    N        0.25155    0.39444    0.67152    1.000
    Si2068   Si       0.28277    0.36507    0.67051    1.000
    N2069    N        0.30610    0.36667    0.63427    1.000
    N2070    N        0.30194    0.36458    0.71022    1.000
    N2071    N        0.24374    0.40359    0.73823    1.000
    N2072    N        0.37162    0.39458    0.64547    1.000
    N2073    N        0.36558    0.38990    0.72331    1.000
    Si2074   Si       0.40795    0.38339    0.72737    1.000
    N2075    N        0.29594    0.38213    0.77818    1.000
    Si2076   Si       0.32851    0.40559    0.79775    1.000
    N2077    N        0.35941    0.37690    0.80931    1.000
    N2078    N        0.41351    0.37593    0.85093    1.000
    N2079    N        0.41912    0.36999    0.76708    1.000
    Si2080   Si       0.40475    0.38009    0.80748    1.000
    N2081    N        0.29465    0.38565    0.87361    1.000
    Si2082   Si       0.25999    0.38429    0.90427    1.000
    N2083    N        0.27954    0.40225    0.93760    1.000
    Si2084   Si       0.29766    0.38088    0.97224    1.000
    N2085    N        0.33731    0.37174    0.95739    1.000
    N2086    N        0.38750    0.41630    0.98047    1.000
    N2087    N        0.39105    0.39221    0.91439    1.000
    Si2088   Si       0.36405    0.40618    0.94442    1.000
    Si2089   Si       0.37626    0.38524    0.87324    1.000
    Si2090   Si       0.46774    0.41559    0.95793    1.000
    N2091    N        0.44735    0.37735    0.96093    1.000
    Si2092   Si       0.43166    0.38034    0.92027    1.000
    Si2093   Si       0.48959    0.42055    0.89054    1.000
    N2094    N        0.30767    0.45658    0.04098    1.000
    Si2095   Si       0.27303    0.45924    0.01167    1.000
    N2096    N        0.29860    0.44522    0.11321    1.000
    N2097    N        0.41489    0.47393    0.01863    1.000
    N2098    N        0.46724    0.42513    0.07591    1.000
    N2099    N        0.24732    0.45033    0.16485    1.000
    Si2100   Si       0.33260    0.43961    0.14249    1.000
    Si2101   Si       0.31742    0.45669    0.21865    1.000
    N2102    N        0.31562    0.42858    0.18292    1.000
    N2103    N        0.35818    0.46992    0.22022    1.000
    N2104    N        0.35054    0.47780    0.14023    1.000
    Si2105   Si       0.38888    0.43886    0.21582    1.000
    N2106    N        0.46212    0.46600    0.18971    1.000
    Si2107   Si       0.42363    0.47535    0.16868    1.000
    N2108    N        0.42129    0.43882    0.24234    1.000
    Si2109   Si       0.46414    0.43970    0.22959    1.000
    N2110    N        0.40249    0.43759    0.17577    1.000
    Si2111   Si       0.31381    0.44766    0.29506    1.000
    N2112    N        0.27718    0.46270    0.31393    1.000
    Si2113   Si       0.27476    0.43570    0.35170    1.000
    N2114    N        0.30329    0.43779    0.25421    1.000
    N2115    N        0.35055    0.47099    0.30064    1.000
    N2116    N        0.31243    0.44682    0.37349    1.000
    Si2117   Si       0.24118    0.47486    0.29384    1.000
    Si2118   Si       0.38764    0.47025    0.32634    1.000
    N2119    N        0.42412    0.45745    0.30660    1.000
    N2120    N        0.38194    0.43803    0.35612    1.000
    N2121    N        0.47995    0.46844    0.25849    1.000
    Si2122   Si       0.46283    0.47442    0.29865    1.000
    Si2123   Si       0.48585    0.46562    0.37076    1.000
    Si2124   Si       0.42307    0.42062    0.28350    1.000
    N2125    N        0.23956    0.44938    0.37506    1.000
    Si2126   Si       0.24943    0.45116    0.41783    1.000
    N2127    N        0.27168    0.47495    0.48183    1.000
    Si2128   Si       0.38456    0.42418    0.45257    1.000
    N2129    N        0.39895    0.46175    0.46441    1.000
    N2130    N        0.45593    0.43569    0.38355    1.000
    N2131    N        0.30160    0.44484    0.53757    1.000
    Si2132   Si       0.26415    0.45435    0.60340    1.000
    Si2133   Si       0.34293    0.46401    0.60376    1.000
    Si2134   Si       0.27004    0.44034    0.50821    1.000
    N2135    N        0.30325    0.47204    0.61801    1.000
    N2136    N        0.44188    0.45382    0.59317    1.000
    Si2137   Si       0.44345    0.45496    0.55047    1.000
    N2138    N        0.48427    0.45814    0.53402    1.000
    Si2139   Si       0.45021    0.41989    0.61712    1.000
    N2140    N        0.30414    0.43072    0.72386    1.000
    Si2141   Si       0.27294    0.46026    0.73523    1.000
    Si2142   Si       0.34674    0.42869    0.72562    1.000
    N2143    N        0.24105    0.46359    0.70570    1.000
    N2144    N        0.23815    0.45295    0.63790    1.000
    N2145    N        0.43040    0.42029    0.72430    1.000
    N2146    N        0.36907    0.45097    0.69555    1.000
    Si2147   Si       0.44711    0.44406    0.69140    1.000
    N2148    N        0.42838    0.42972    0.65407    1.000
    N2149    N        0.37978    0.46585    0.62576    1.000
    Si2150   Si       0.38473    0.43415    0.65685    1.000
    N2151    N        0.49008    0.44299    0.69370    1.000
    N2152    N        0.26177    0.45215    0.77605    1.000
    Si2153   Si       0.28255    0.46778    0.81072    1.000
    N2154    N        0.30320    0.43195    0.82286    1.000
    N2155    N        0.35013    0.43236    0.77084    1.000
    Si2156   Si       0.31184    0.42544    0.86611    1.000
    N2157    N        0.35529    0.42177    0.86327    1.000
    Si2158   Si       0.44208    0.45080    0.83338    1.000
    Si2159   Si       0.37345    0.46101    0.85785    1.000
    Si2160   Si       0.38080    0.45512    0.79158    1.000
    N2161    N        0.47796    0.43501    0.85296    1.000
    N2162    N        0.41576    0.43175    0.80232    1.000
    Si2163   Si       0.43445    0.44201    0.76290    1.000
    N2164    N        0.47520    0.44984    0.76031    1.000
    N2165    N        0.41483    0.45439    0.86792    1.000
    N2166    N        0.40147    0.47325    0.75655    1.000
    N2167    N        0.28602    0.46745    0.97001    1.000
    N2168    N        0.33968    0.43947    0.93403    1.000
    Si2169   Si       0.29528    0.44387    0.93571    1.000
    N2170    N        0.28919    0.45063    0.89200    1.000
    Si2171   Si       0.25651    0.47627    0.88776    1.000
    Si2172   Si       0.35953    0.47763    0.92734    1.000
    N2173    N        0.39852    0.46906    0.94011    1.000
    Si2174   Si       0.40806    0.45377    0.98113    1.000
    N2175    N        0.45200    0.45228    0.97399    1.000
    Si2176   Si       0.42803    0.45602    0.90986    1.000
    N2177    N        0.45148    0.42022    0.91693    1.000
    N2178    N        0.30397    0.51836    0.07689    1.000
    N2179    N        0.32909    0.51348    0.01170    1.000
    Si2180   Si       0.32824    0.49447    0.05054    1.000
    N2181    N        0.25735    0.49864    0.02174    1.000
    Si2182   Si       0.24851    0.52314    0.05810    1.000
    Si2183   Si       0.28570    0.48511    0.10217    1.000
    N2184    N        0.24700    0.48440    0.08445    1.000
    N2185    N        0.36664    0.48876    0.07012    1.000
    Si2186   Si       0.39774    0.50267    0.04411    1.000
    Si2187   Si       0.44758    0.51230    0.10544    1.000
    N2188    N        0.42471    0.52001    0.07216    1.000
    N2189    N        0.48165    0.48794    0.10356    1.000
    Si2190   Si       0.37539    0.49882    0.11183    1.000
    N2191    N        0.48703    0.48446    0.03537    1.000
    Si2192   Si       0.45686    0.48115    0.00569    1.000
    N2193    N        0.38963    0.53765    0.01962    1.000
    Si2194   Si       0.33134    0.51595    0.15248    1.000
    Si2195   Si       0.26211    0.49018    0.17214    1.000
    Si2196   Si       0.30117    0.52491    0.21962    1.000
    N2197    N        0.28857    0.48549    0.20563    1.000
    N2198    N        0.28992    0.50729    0.14060    1.000
    N2199    N        0.33621    0.52743    0.19346    1.000
    Si2200   Si       0.37280    0.51113    0.21329    1.000
    N2201    N        0.40949    0.51200    0.19038    1.000
    N2202    N        0.41719    0.49047    0.12717    1.000
    N2203    N        0.36020    0.53839    0.12732    1.000
    Si2204   Si       0.34977    0.51125    0.28171    1.000
    N2205    N        0.30958    0.51445    0.26121    1.000
    Si2206   Si       0.35400    0.53382    0.34654    1.000
    N2207    N        0.31947    0.51868    0.36707    1.000
    N2208    N        0.23674    0.51545    0.28048    1.000
    N2209    N        0.38932    0.51225    0.33405    1.000
    N2210    N        0.46026    0.51670    0.30739    1.000
    N2211    N        0.37643    0.52835    0.25312    1.000
    Si2212   Si       0.42629    0.53521    0.32690    1.000
    N2213    N        0.34227    0.49344    0.42776    1.000
    Si2214   Si       0.30359    0.49278    0.45611    1.000
    Si2215   Si       0.31723    0.48389    0.39467    1.000
    N2216    N        0.33397    0.48993    0.49187    1.000
    N2217    N        0.28116    0.48109    0.41870    1.000
    N2218    N        0.29052    0.53685    0.46004    1.000
    Si2219   Si       0.36863    0.49378    0.46212    1.000
    N2220    N        0.39681    0.52424    0.47697    1.000
    N2221    N        0.48736    0.49999    0.39499    1.000
    Si2222   Si       0.47626    0.53393    0.46731    1.000
    N2223    N        0.46300    0.49746    0.48423    1.000
    Si2224   Si       0.42153    0.48937    0.49128    1.000
    N2225    N        0.29304    0.51889    0.53585    1.000
    Si2226   Si       0.26349    0.52254    0.56808    1.000
    Si2227   Si       0.31855    0.48421    0.53352    1.000
    N2228    N        0.34794    0.48756    0.56490    1.000
    N2229    N        0.24547    0.48298    0.57623    1.000
    N2230    N        0.28140    0.53576    0.60649    1.000
    N2231    N        0.40721    0.51779    0.59363    1.000
    Si2232   Si       0.38776    0.50503    0.55465    1.000
    Si2233   Si       0.41960    0.48344    0.61779    1.000
    N2234    N        0.41713    0.48355    0.53321    1.000
    N2235    N        0.29257    0.49855    0.73431    1.000
    Si2236   Si       0.29939    0.51196    0.63672    1.000
    N2237    N        0.27020    0.51428    0.66954    1.000
    Si2238   Si       0.27339    0.53000    0.70969    1.000
    N2239    N        0.33442    0.52903    0.65228    1.000
    Si2240   Si       0.32858    0.52271    0.73951    1.000
    N2241    N        0.36518    0.51677    0.71669    1.000
    Si2242   Si       0.23944    0.48413    0.66646    1.000
    Si2243   Si       0.39207    0.48282    0.71584    1.000
    N2244    N        0.45716    0.50009    0.63755    1.000
    N2245    N        0.48374    0.53693    0.69555    1.000
    Si2246   Si       0.44823    0.51994    0.67799    1.000
    N2247    N        0.43046    0.48496    0.69513    1.000
    N2248    N        0.30580    0.50382    0.82131    1.000
    Si2249   Si       0.34559    0.51935    0.81611    1.000
    Si2250   Si       0.27776    0.51876    0.84998    1.000
    N2251    N        0.25148    0.48269    0.84249    1.000
    N2252    N        0.45243    0.49421    0.82625    1.000
    Si2253   Si       0.46663    0.52983    0.80152    1.000
    Si2254   Si       0.45550    0.51152    0.86791    1.000
    N2255    N        0.48734    0.51630    0.76494    1.000
    N2256    N        0.36889    0.48242    0.82218    1.000
    Si2257   Si       0.30484    0.50719    0.97768    1.000
    N2258    N        0.27523    0.51691    0.89305    1.000
    N2259    N        0.33659    0.50878    0.94678    1.000
    N2260    N        0.45229    0.49237    0.90882    1.000
    N2261    N        0.45013    0.51766    0.98191    1.000
    N2262    N        0.36447    0.49154    0.88681    1.000
    Si2263   Si       0.38318    0.53103    0.88145    1.000
    Si2264   Si       0.46782    0.51810    0.94077    1.000
    N2265    N        0.27098    0.56014    0.03611    1.000
    N2266    N        0.33958    0.57386    0.05023    1.000
    Si2267   Si       0.34967    0.55153    0.01515    1.000
    Si2268   Si       0.29914    0.56329    0.06930    1.000
    N2269    N        0.24985    0.55264    0.09693    1.000
    N2270    N        0.45544    0.56042    0.03447    1.000
    Si2271   Si       0.43657    0.56803    0.07472    1.000
    N2272    N        0.45880    0.55206    0.11163    1.000
    Si2273   Si       0.42770    0.55065    0.00203    1.000
    N2274    N        0.39762    0.58413    0.09276    1.000
    N2275    N        0.28572    0.57245    0.16071    1.000
    Si2276   Si       0.26104    0.58286    0.19669    1.000
    N2277    N        0.26350    0.54607    0.22140    1.000
    Si2278   Si       0.26378    0.54323    0.13647    1.000
    Si2279   Si       0.37893    0.57628    0.13313    1.000
    Si2280   Si       0.48834    0.56638    0.14048    1.000
    N2281    N        0.42512    0.57151    0.22347    1.000
    N2282    N        0.47347    0.55258    0.17733    1.000
    Si2283   Si       0.43104    0.55061    0.18615    1.000
    N2284    N        0.41262    0.58170    0.16150    1.000
    Si2285   Si       0.45777    0.59810    0.23637    1.000
    N2286    N        0.30322    0.58164    0.27272    1.000
    N2287    N        0.33846    0.54520    0.30703    1.000
    Si2288   Si       0.34327    0.58629    0.28876    1.000
    N2289    N        0.27073    0.54791    0.32518    1.000
    Si2290   Si       0.29709    0.54220    0.29115    1.000
    Si2291   Si       0.28703    0.54773    0.36774    1.000
    N2292    N        0.37243    0.57059    0.35869    1.000
    N2293    N        0.41855    0.56779    0.29768    1.000
    Si2294   Si       0.40040    0.56518    0.25900    1.000
    N2295    N        0.48152    0.58291    0.31255    1.000
    N2296    N        0.43880    0.55316    0.36563    1.000
    N2297    N        0.48286    0.56459    0.24668    1.000
    Si2298   Si       0.48549    0.54600    0.28833    1.000
    Si2299   Si       0.41090    0.58400    0.37373    1.000
    N2300    N        0.37224    0.59741    0.25881    1.000
    Si2301   Si       0.25858    0.55467    0.43480    1.000
    N2302    N        0.25223    0.54495    0.39194    1.000
    N2303    N        0.30852    0.58446    0.37755    1.000
    N2304    N        0.40361    0.59535    0.41457    1.000
    N2305    N        0.47424    0.56687    0.49518    1.000
    Si2306   Si       0.42879    0.58860    0.44869    1.000
    N2307    N        0.40157    0.59148    0.48510    1.000
    Si2308   Si       0.47140    0.54306    0.39261    1.000
    N2309    N        0.45606    0.55504    0.43383    1.000
    N2310    N        0.26707    0.57374    0.51097    1.000
    Si2311   Si       0.27543    0.57975    0.60633    1.000
    N2312    N        0.35626    0.57044    0.60453    1.000
    Si2313   Si       0.30103    0.54788    0.50348    1.000
    N2314    N        0.33809    0.57015    0.49776    1.000
    N2315    N        0.29377    0.59746    0.57042    1.000
    Si2316   Si       0.39352    0.55730    0.58584    1.000
    N2317    N        0.38780    0.54853    0.54115    1.000
    N2318    N        0.48271    0.57213    0.57857    1.000
    Si2319   Si       0.46012    0.59252    0.60861    1.000
    Si2320   Si       0.38230    0.55764    0.50096    1.000
    Si2321   Si       0.48527    0.57753    0.53539    1.000
    N2322    N        0.41729    0.59248    0.59893    1.000
    Si2323   Si       0.29150    0.58942    0.74676    1.000
    N2324    N        0.30614    0.55925    0.72139    1.000
    Si2325   Si       0.34177    0.57176    0.64524    1.000
    N2326    N        0.46070    0.58050    0.64998    1.000
    N2327    N        0.36473    0.59163    0.67659    1.000
    Si2328   Si       0.43342    0.58935    0.68219    1.000
    N2329    N        0.41602    0.54976    0.68401    1.000
    N2330    N        0.44777    0.59735    0.72221    1.000
    N2331    N        0.38844    0.57907    0.74173    1.000
    Si2332   Si       0.37921    0.55767    0.70416    1.000
    N2333    N        0.27353    0.57269    0.77972    1.000
    Si2334   Si       0.35500    0.58083    0.76650    1.000
    N2335    N        0.24702    0.54750    0.83997    1.000
    N2336    N        0.34259    0.53967    0.77724    1.000
    N2337    N        0.36627    0.54475    0.84418    1.000
    N2338    N        0.42991    0.55777    0.79343    1.000
    Si2339   Si       0.40172    0.56826    0.82687    1.000
    Si2340   Si       0.42640    0.58993    0.76358    1.000
    N2341    N        0.37258    0.59369    0.80299    1.000
    N2342    N        0.42313    0.53902    0.86293    1.000
    N2343    N        0.24856    0.57772    0.90949    1.000
    Si2344   Si       0.34842    0.55016    0.93965    1.000
    N2345    N        0.31854    0.57054    0.91564    1.000
    Si2346   Si       0.27933    0.54933    0.92113    1.000
    N2347    N        0.34676    0.57207    0.97613    1.000
    N2348    N        0.28117    0.54088    0.96279    1.000
    Si2349   Si       0.27048    0.57164    0.99359    1.000
    N2350    N        0.46319    0.56003    0.92803    1.000
    Si2351   Si       0.42152    0.57701    0.93231    1.000
    N2352    N        0.41857    0.58368    0.97501    1.000
    N2353    N        0.38685    0.55316    0.91876    1.000
    Si2354   Si       0.30133    0.63633    0.07381    1.000
    N2355    N        0.34511    0.64126    0.06325    1.000
    N2356    N        0.27017    0.64442    0.04425    1.000
    Si2357   Si       0.28019    0.64821    0.00011    1.000
    N2358    N        0.29893    0.59974    0.09450    1.000
    Si2359   Si       0.37015    0.60319    0.06377    1.000
    N2360    N        0.40501    0.61471    0.03775    1.000
    Si2361   Si       0.43113    0.63806    0.06414    1.000
    N2362    N        0.45767    0.60923    0.08065    1.000
    Si2363   Si       0.30527    0.60802    0.13750    1.000
    N2364    N        0.28966    0.63703    0.16588    1.000
    N2365    N        0.26977    0.61354    0.22489    1.000
    Si2366   Si       0.29325    0.64593    0.20703    1.000
    N2367    N        0.33420    0.64165    0.21954    1.000
    N2368    N        0.34819    0.60568    0.14258    1.000
    Si2369   Si       0.37215    0.63564    0.23853    1.000
    N2370    N        0.39624    0.63701    0.20376    1.000
    Si2371   Si       0.48331    0.63963    0.16235    1.000
    N2372    N        0.44201    0.65204    0.14994    1.000
    Si2373   Si       0.42393    0.62143    0.17627    1.000
    N2374    N        0.46482    0.62440    0.20181    1.000
    N2375    N        0.33574    0.61826    0.31632    1.000
    Si2376   Si       0.26932    0.61012    0.26849    1.000
    N2377    N        0.26945    0.64681    0.29272    1.000
    Si2378   Si       0.34390    0.60134    0.35527    1.000
    Si2379   Si       0.31123    0.65322    0.30804    1.000
    N2380    N        0.42311    0.61830    0.34415    1.000
    N2381    N        0.44639    0.62447    0.26961    1.000
    Si2382   Si       0.44225    0.60185    0.30879    1.000
    Si2383   Si       0.23806    0.63652    0.41364    1.000
    Si2384   Si       0.30109    0.61177    0.41251    1.000
    N2385    N        0.33657    0.61395    0.43766    1.000
    Si2386   Si       0.33795    0.61099    0.48045    1.000
    N2387    N        0.27842    0.64591    0.39747    1.000
    N2388    N        0.35582    0.63527    0.38148    1.000
    N2389    N        0.36193    0.64654    0.49256    1.000
    N2390    N        0.26268    0.59824    0.43130    1.000
    N2391    N        0.45551    0.62253    0.45651    1.000
    Si2392   Si       0.48671    0.60797    0.47958    1.000
    Si2393   Si       0.37357    0.62646    0.41861    1.000
    Si2394   Si       0.27608    0.61098    0.53208    1.000
    N2395    N        0.35591    0.63621    0.59565    1.000
    N2396    N        0.25431    0.64643    0.54469    1.000
    N2397    N        0.30369    0.62988    0.50366    1.000
    Si2398   Si       0.32918    0.60256    0.59358    1.000
    N2399    N        0.40601    0.63205    0.54607    1.000
    Si2400   Si       0.39912    0.62980    0.58843    1.000
    Si2401   Si       0.40141    0.63197    0.50384    1.000
    N2402    N        0.47183    0.63549    0.61594    1.000
    N2403    N        0.48535    0.62023    0.52186    1.000
    Si2404   Si       0.26251    0.65057    0.70749    1.000
    N2405    N        0.26196    0.61100    0.72350    1.000
    N2406    N        0.24972    0.64953    0.66676    1.000
    N2407    N        0.30610    0.59299    0.63275    1.000
    N2408    N        0.41775    0.63047    0.67227    1.000
    Si2409   Si       0.44133    0.65350    0.64195    1.000
    Si2410   Si       0.37286    0.63538    0.67774    1.000
    Si2411   Si       0.48966    0.60710    0.72506    1.000
    N2412    N        0.49038    0.64772    0.73689    1.000
    Si2413   Si       0.27308    0.63916    0.84515    1.000
    Si2414   Si       0.34862    0.62252    0.82791    1.000
    N2415    N        0.31042    0.64348    0.82403    1.000
    N2416    N        0.32645    0.61421    0.75744    1.000
    N2417    N        0.24125    0.61097    0.83673    1.000
    N2418    N        0.43445    0.62839    0.78249    1.000
    N2419    N        0.41173    0.60637    0.85076    1.000
    Si2420   Si       0.41676    0.64003    0.82304    1.000
    N2421    N        0.37673    0.65577    0.82142    1.000
    N2422    N        0.35050    0.61342    0.87204    1.000
    Si2423   Si       0.33336    0.61288    0.96971    1.000
    N2424    N        0.28410    0.63548    0.88815    1.000
    N2425    N        0.32988    0.63551    0.93458    1.000
    Si2426   Si       0.31766    0.61174    0.90064    1.000
    N2427    N        0.29422    0.60820    0.99066    1.000
    N2428    N        0.36343    0.63821    0.98937    1.000
    Si2429   Si       0.44436    0.64438    0.93700    1.000
    Si2430   Si       0.40352    0.61983    0.99421    1.000
    N2431    N        0.48370    0.62562    0.93921    1.000
    N2432    N        0.41827    0.61620    0.91590    1.000
    Si2433   Si       0.39152    0.62684    0.88368    1.000
    N2434    N        0.43160    0.64984    0.97827    1.000
    N2435    N        0.29597    0.66746    0.10313    1.000
    N2436    N        0.30827    0.68128    0.00711    1.000
    Si2437   Si       0.30840    0.70753    0.09413    1.000
    N2438    N        0.35264    0.70380    0.09786    1.000
    Si2439   Si       0.35264    0.68054    0.00107    1.000
    Si2440   Si       0.37090    0.67755    0.06985    1.000
    N2441    N        0.38041    0.69794    0.02896    1.000
    N2442    N        0.45283    0.66935    0.04103    1.000
    Si2443   Si       0.47790    0.68956    0.06983    1.000
    N2444    N        0.45778    0.70636    0.10469    1.000
    Si2445   Si       0.45454    0.68015    0.99855    1.000
    N2446    N        0.40586    0.66233    0.08920    1.000
    N2447    N        0.28033    0.68245    0.22510    1.000
    Si2448   Si       0.25026    0.70234    0.20034    1.000
    Si2449   Si       0.27108    0.66819    0.14002    1.000
    N2450    N        0.27258    0.70448    0.16269    1.000
    Si2451   Si       0.42490    0.68262    0.12748    1.000
    N2452    N        0.45570    0.68897    0.24020    1.000
    N2453    N        0.39618    0.70976    0.14461    1.000
    Si2454   Si       0.48371    0.66191    0.22232    1.000
    N2455    N        0.31024    0.67374    0.34568    1.000
    N2456    N        0.32660    0.68278    0.27958    1.000
    Si2457   Si       0.34907    0.67365    0.36335    1.000
    Si2458   Si       0.29468    0.70189    0.26005    1.000
    N2459    N        0.24521    0.68883    0.34686    1.000
    N2460    N        0.25760    0.71491    0.28395    1.000
    Si2461   Si       0.24238    0.67910    0.30443    1.000
    Si2462   Si       0.36570    0.69100    0.28974    1.000
    Si2463   Si       0.41490    0.66197    0.33908    1.000
    N2464    N        0.38899    0.66574    0.26470    1.000
    N2465    N        0.37527    0.67764    0.33046    1.000
    N2466    N        0.44174    0.67761    0.31002    1.000
    Si2467   Si       0.43223    0.66606    0.26853    1.000
    Si2468   Si       0.46614    0.71280    0.31444    1.000
    Si2469   Si       0.27883    0.68220    0.37627    1.000
    N2470    N        0.30006    0.70179    0.49164    1.000
    N2471    N        0.36382    0.70204    0.39066    1.000
    N2472    N        0.45699    0.69415    0.42880    1.000
    N2473    N        0.42209    0.67352    0.49352    1.000
    Si2474   Si       0.46724    0.70028    0.38606    1.000
    Si2475   Si       0.43935    0.66297    0.45360    1.000
    N2476    N        0.42612    0.68325    0.37620    1.000
    Si2477   Si       0.38418    0.68518    0.47356    1.000
    N2478    N        0.39628    0.65880    0.43618    1.000
    Si2479   Si       0.40234    0.69526    0.41073    1.000
    N2480    N        0.32360    0.68190    0.54918    1.000
    N2481    N        0.29371    0.67065    0.60599    1.000
    Si2482   Si       0.28286    0.67451    0.56515    1.000
    Si2483   Si       0.32638    0.66959    0.50679    1.000
    Si2484   Si       0.33903    0.67147    0.61423    1.000
    Si2485   Si       0.35731    0.71016    0.54713    1.000
    N2486    N        0.25624    0.70896    0.55455    1.000
    N2487    N        0.35996    0.70835    0.60980    1.000
    Si2488   Si       0.26169    0.71184    0.51070    1.000
    Si2489   Si       0.43052    0.70129    0.52785    1.000
    N2490    N        0.46952    0.68923    0.54229    1.000
    Si2491   Si       0.40355    0.70453    0.60312    1.000
    N2492    N        0.39931    0.70394    0.55881    1.000
    N2493    N        0.41390    0.66386    0.61102    1.000
    Si2494   Si       0.26254    0.68284    0.63631    1.000
    Si2495   Si       0.32112    0.68674    0.68415    1.000
    N2496    N        0.28938    0.70520    0.66199    1.000
    N2497    N        0.30282    0.66214    0.71463    1.000
    N2498    N        0.34206    0.65895    0.65787    1.000
    N2499    N        0.45424    0.68235    0.67127    1.000
    Si2500   Si       0.42697    0.66947    0.70280    1.000
    Si2501   Si       0.36756    0.70283    0.73036    1.000
    N2502    N        0.43588    0.68553    0.74268    1.000
    N2503    N        0.38346    0.67106    0.70443    1.000
    Si2504   Si       0.46920    0.71343    0.64595    1.000
    N2505    N        0.28255    0.68005    0.77424    1.000
    N2506    N        0.26261    0.68150    0.83885    1.000
    N2507    N        0.35313    0.67860    0.76353    1.000
    Si2508   Si       0.29873    0.68550    0.81464    1.000
    N2509    N        0.33288    0.71222    0.81762    1.000
    Si2510   Si       0.24528    0.69648    0.76091    1.000
    Si2511   Si       0.31518    0.65681    0.75400    1.000
    Si2512   Si       0.36764    0.69275    0.80018    1.000
    N2513    N        0.43626    0.67022    0.84969    1.000
    Si2514   Si       0.41681    0.71272    0.84893    1.000
    N2515    N        0.40544    0.71326    0.80643    1.000
    N2516    N        0.48529    0.68511    0.78990    1.000
    Si2517   Si       0.45940    0.65907    0.76502    1.000
    Si2518   Si       0.28188    0.66446    0.92200    1.000
    N2519    N        0.25081    0.69590    0.90691    1.000
    N2520    N        0.31375    0.69610    0.91720    1.000
    Si2521   Si       0.34965    0.67593    0.92805    1.000
    N2522    N        0.26219    0.65621    0.95930    1.000
    N2523    N        0.36058    0.70058    0.96534    1.000
    Si2524   Si       0.46396    0.68488    0.88000    1.000
    N2525    N        0.37828    0.66563    0.90016    1.000
    N2526    N        0.44716    0.68355    0.91997    1.000
    Si2527   Si       0.26082    0.75245    0.06772    1.000
    N2528    N        0.25776    0.73758    0.02723    1.000
    N2529    N        0.31365    0.73077    0.05697    1.000
    Si2530   Si       0.29760    0.72359    0.01714    1.000
    Si2531   Si       0.32198    0.76469    0.08362    1.000
    N2532    N        0.26080    0.71667    0.09544    1.000
    N2533    N        0.48989    0.77086    0.10244    1.000
    N2534    N        0.42935    0.75536    0.04225    1.000
    Si2535   Si       0.40656    0.73183    0.01316    1.000
    N2536    N        0.31779    0.74194    0.12046    1.000
    N2537    N        0.30824    0.75953    0.18356    1.000
    Si2538   Si       0.28375    0.74341    0.14940    1.000
    Si2539   Si       0.28462    0.76418    0.22155    1.000
    N2540    N        0.24821    0.76620    0.14567    1.000
    N2541    N        0.24528    0.74173    0.22073    1.000
    Si2542   Si       0.36002    0.72890    0.13329    1.000
    N2543    N        0.48575    0.74220    0.16617    1.000
    N2544    N        0.43428    0.75782    0.21563    1.000
    Si2545   Si       0.48585    0.73294    0.12391    1.000
    N2546    N        0.37146    0.76707    0.15535    1.000
    Si2547   Si       0.45751    0.73322    0.24370    1.000
    Si2548   Si       0.45945    0.77239    0.18293    1.000
    N2549    N        0.36297    0.77658    0.22258    1.000
    N2550    N        0.33003    0.75766    0.35191    1.000
    Si2551   Si       0.34610    0.75935    0.25697    1.000
    Si2552   Si       0.35615    0.76246    0.31870    1.000
    N2553    N        0.30767    0.74081    0.24923    1.000
    N2554    N        0.36640    0.73405    0.28589    1.000
    N2555    N        0.44482    0.74191    0.28644    1.000
    N2556    N        0.46701    0.73114    0.35349    1.000
    Si2557   Si       0.46583    0.77331    0.36094    1.000
    N2558    N        0.25683    0.73792    0.44478    1.000
    N2559    N        0.32851    0.74529    0.44384    1.000
    Si2560   Si       0.33867    0.73931    0.39107    1.000
    Si2561   Si       0.29010    0.74872    0.42184    1.000
    Si2562   Si       0.32554    0.73702    0.48701    1.000
    N2563    N        0.29750    0.71599    0.39352    1.000
    N2564    N        0.39784    0.71871    0.44881    1.000
    Si2565   Si       0.47804    0.72945    0.44744    1.000
    N2566    N        0.44886    0.76111    0.44996    1.000
    Si2567   Si       0.41489    0.74946    0.47424    1.000
    N2568    N        0.36926    0.77267    0.40287    1.000
    Si2569   Si       0.34680    0.74965    0.60372    1.000
    N2570    N        0.34118    0.74800    0.56081    1.000
    N2571    N        0.24474    0.75274    0.50701    1.000
    N2572    N        0.30983    0.76226    0.62046    1.000
    N2573    N        0.36093    0.71302    0.50244    1.000
    N2574    N        0.43253    0.74244    0.51265    1.000
    N2575    N        0.24589    0.72372    0.62307    1.000
    Si2576   Si       0.27936    0.74542    0.64970    1.000
    Si2577   Si       0.32168    0.75989    0.71861    1.000
    N2578    N        0.33560    0.72072    0.70644    1.000
    N2579    N        0.28837    0.77130    0.69056    1.000
    N2580    N        0.24253    0.73781    0.74534    1.000
    N2581    N        0.39202    0.73539    0.74510    1.000
    Si2582   Si       0.39485    0.77217    0.71843    1.000
    N2583    N        0.39973    0.75872    0.67868    1.000
    N2584    N        0.43422    0.72705    0.62364    1.000
    Si2585   Si       0.41309    0.76357    0.63939    1.000
    N2586    N        0.25601    0.75190    0.80775    1.000
    N2587    N        0.31216    0.75938    0.76202    1.000
    Si2588   Si       0.34867    0.74608    0.84241    1.000
    Si2589   Si       0.26953    0.76443    0.76735    1.000
    N2590    N        0.31035    0.75078    0.86562    1.000
    Si2591   Si       0.28201    0.76753    0.84019    1.000
    N2592    N        0.45832    0.74558    0.76699    1.000
    N2593    N        0.38232    0.73525    0.86666    1.000
    Si2594   Si       0.42464    0.71957    0.76809    1.000
    N2595    N        0.45576    0.72743    0.86959    1.000
    N2596    N        0.34871    0.75456    0.92601    1.000
    Si2597   Si       0.31137    0.73855    0.90807    1.000
    N2598    N        0.27804    0.75574    0.92817    1.000
    N2599    N        0.30963    0.75041    0.98530    1.000
    Si2600   Si       0.34983    0.74243    0.96714    1.000
    Si2601   Si       0.24230    0.73103    0.93136    1.000
    N2602    N        0.48531    0.74044    0.93052    1.000
    N2603    N        0.43738    0.71749    0.98455    1.000
    N2604    N        0.41640    0.74962    0.92704    1.000
    Si2605   Si       0.48670    0.75196    0.88740    1.000
    N2606    N        0.37929    0.76060    0.99431    1.000
    Si2607   Si       0.44491    0.72303    0.94082    1.000
    Si2608   Si       0.38463    0.76425    0.90218    1.000
    N2609    N        0.28394    0.78821    0.07822    1.000
    Si2610   Si       0.24451    0.81974    0.00578    1.000
    N2611    N        0.35435    0.79020    0.08194    1.000
    N2612    N        0.35082    0.82726    0.00522    1.000
    Si2613   Si       0.28460    0.82976    0.06915    1.000
    Si2614   Si       0.36214    0.83144    0.09111    1.000
    N2615    N        0.28158    0.83364    0.02531    1.000
    Si2616   Si       0.44334    0.79611    0.03973    1.000
    N2617    N        0.43877    0.81747    0.07794    1.000
    Si2618   Si       0.46433    0.80565    0.11092    1.000
    N2619    N        0.42294    0.81628    0.00651    1.000
    N2620    N        0.28883    0.80616    0.22303    1.000
    N2621    N        0.33361    0.82419    0.17545    1.000
    Si2622   Si       0.34396    0.78408    0.18647    1.000
    N2623    N        0.26008    0.83388    0.16006    1.000
    Si2624   Si       0.29274    0.83431    0.19003    1.000
    Si2625   Si       0.40488    0.78934    0.22706    1.000
    N2626    N        0.40549    0.81838    0.19241    1.000
    N2627    N        0.44264    0.79046    0.14630    1.000
    N2628    N        0.38152    0.83003    0.12947    1.000
    N2629    N        0.47698    0.80661    0.20059    1.000
    Si2630   Si       0.40083    0.79750    0.15272    1.000
    N2631    N        0.33924    0.79058    0.28713    1.000
    Si2632   Si       0.30459    0.79550    0.35926    1.000
    N2633    N        0.26558    0.80426    0.34315    1.000
    Si2634   Si       0.27429    0.82142    0.26023    1.000
    N2635    N        0.25378    0.78587    0.27655    1.000
    N2636    N        0.33254    0.82642    0.34508    1.000
    Si2637   Si       0.33823    0.83168    0.30206    1.000
    N2638    N        0.45765    0.79710    0.32332    1.000
    N2639    N        0.41518    0.80424    0.26769    1.000
    Si2640   Si       0.42557    0.77838    0.30130    1.000
    Si2641   Si       0.39499    0.79181    0.37354    1.000
    N2642    N        0.39263    0.77844    0.33225    1.000
    N2643    N        0.33683    0.81827    0.45353    1.000
    N2644    N        0.29699    0.78703    0.40192    1.000
    Si2645   Si       0.30658    0.81652    0.48724    1.000
    N2646    N        0.27524    0.82402    0.45919    1.000
    Si2647   Si       0.35496    0.78076    0.44091    1.000
    Si2648   Si       0.29515    0.82719    0.42051    1.000
    Si2649   Si       0.37214    0.81658    0.49975    1.000
    Si2650   Si       0.46070    0.80169    0.45539    1.000
    N2651    N        0.43618    0.79131    0.38688    1.000
    N2652    N        0.38658    0.78301    0.47375    1.000
    Si2653   Si       0.33722    0.78870    0.54423    1.000
    N2654    N        0.31729    0.81203    0.57543    1.000
    Si2655   Si       0.28369    0.79725    0.60102    1.000
    N2656    N        0.31793    0.77859    0.50507    1.000
    N2657    N        0.24877    0.78951    0.57196    1.000
    N2658    N        0.37841    0.80262    0.54199    1.000
    N2659    N        0.43822    0.79684    0.56499    1.000
    Si2660   Si       0.47175    0.81723    0.58428    1.000
    Si2661   Si       0.39939    0.80191    0.57927    1.000
    N2662    N        0.46124    0.80827    0.49810    1.000
    Si2663   Si       0.45344    0.77571    0.52886    1.000
    N2664    N        0.38576    0.77082    0.60664    1.000
    N2665    N        0.35408    0.78906    0.71940    1.000
    N2666    N        0.25523    0.78348    0.63707    1.000
    Si2667   Si       0.25453    0.79548    0.67772    1.000
    Si2668   Si       0.35367    0.83067    0.73054    1.000
    Si2669   Si       0.48308    0.78464    0.64533    1.000
    N2670    N        0.44182    0.79686    0.64209    1.000
    N2671    N        0.42806    0.79756    0.73631    1.000
    N2672    N        0.30453    0.79616    0.81772    1.000
    N2673    N        0.25953    0.80282    0.85747    1.000
    Si2674   Si       0.33416    0.78860    0.78761    1.000
    N2675    N        0.25726    0.80636    0.76218    1.000
    N2676    N        0.32594    0.82482    0.76545    1.000
    Si2677   Si       0.28893    0.82950    0.84119    1.000
    N2678    N        0.36626    0.77718    0.81584    1.000
    Si2679   Si       0.38787    0.80775    0.83759    1.000
    N2680    N        0.42967    0.81768    0.83140    1.000
    Si2681   Si       0.46744    0.78557    0.75385    1.000
    Si2682   Si       0.45153    0.82468    0.86894    1.000
    N2683    N        0.48725    0.80366    0.78840    1.000
    N2684    N        0.29426    0.82223    0.96327    1.000
    Si2685   Si       0.28422    0.77944    0.96534    1.000
    N2686    N        0.24232    0.78551    0.97958    1.000
    N2687    N        0.38589    0.81687    0.94805    1.000
    N2688    N        0.38490    0.80314    0.88158    1.000
    N2689    N        0.47984    0.79387    0.87952    1.000
    Si2690   Si       0.38295    0.80374    0.98795    1.000
    N2691    N        0.32120    0.84541    0.09038    1.000
    N2692    N        0.25423    0.85336    0.08944    1.000
    N2693    N        0.33129    0.88449    0.02050    1.000
    Si2694   Si       0.31412    0.88448    0.10798    1.000
    Si2695   Si       0.36797    0.86324    0.02457    1.000
    N2696    N        0.38548    0.85585    0.06358    1.000
    Si2697   Si       0.42699    0.85973    0.07213    1.000
    N2698    N        0.45105    0.87019    0.03689    1.000
    N2699    N        0.43953    0.88512    0.10486    1.000
    Si2700   Si       0.43333    0.85774    0.99888    1.000
    Si2701   Si       0.48523    0.88638    0.11579    1.000
    N2702    N        0.39607    0.88098    0.99638    1.000
    N2703    N        0.29106    0.87555    0.20421    1.000
    Si2704   Si       0.24961    0.86585    0.13136    1.000
    N2705    N        0.34826    0.88645    0.13511    1.000
    Si2706   Si       0.36037    0.85343    0.15913    1.000
    Si2707   Si       0.25485    0.89013    0.22876    1.000
    N2708    N        0.38094    0.88056    0.18527    1.000
    N2709    N        0.45324    0.87156    0.18808    1.000
    N2710    N        0.41212    0.86998    0.24233    1.000
    Si2711   Si       0.47660    0.83895    0.17051    1.000
    Si2712   Si       0.41416    0.86066    0.20053    1.000
    N2713    N        0.30032    0.84650    0.28598    1.000
    N2714    N        0.27498    0.88165    0.33523    1.000
    Si2715   Si       0.25111    0.84886    0.34999    1.000
    N2716    N        0.24466    0.84945    0.24764    1.000
    Si2717   Si       0.29090    0.88844    0.29545    1.000
    N2718    N        0.37125    0.85810    0.29298    1.000
    Si2719   Si       0.46759    0.83951    0.33042    1.000
    Si2720   Si       0.41195    0.84735    0.27891    1.000
    N2721    N        0.43995    0.86291    0.30734    1.000
    N2722    N        0.46086    0.85796    0.37095    1.000
    Si2723   Si       0.35443    0.85261    0.37088    1.000
    N2724    N        0.32648    0.85576    0.40640    1.000
    N2725    N        0.26069    0.84701    0.39422    1.000
    Si2726   Si       0.35195    0.85944    0.44859    1.000
    N2727    N        0.44449    0.83936    0.44092    1.000
    N2728    N        0.39336    0.83581    0.37955    1.000
    Si2729   Si       0.42647    0.86483    0.47067    1.000
    Si2730   Si       0.43599    0.83434    0.39675    1.000
    N2731    N        0.38522    0.85164    0.47708    1.000
    Si2732   Si       0.31537    0.85329    0.59193    1.000
    Si2733   Si       0.34897    0.87574    0.53233    1.000
    N2734    N        0.31838    0.88351    0.56381    1.000
    N2735    N        0.33293    0.83932    0.51389    1.000
    Si2736   Si       0.24394    0.88065    0.51718    1.000
    N2737    N        0.28072    0.84060    0.61472    1.000
    N2738    N        0.34647    0.86662    0.61862    1.000
    N2739    N        0.23765    0.83793    0.51389    1.000
    Si2740   Si       0.47961    0.84330    0.51566    1.000
    N2741    N        0.44663    0.86962    0.50838    1.000
    Si2742   Si       0.38404    0.87599    0.59722    1.000
    N2743    N        0.38887    0.87773    0.55426    1.000
    N2744    N        0.46845    0.84888    0.61326    1.000
    N2745    N        0.40217    0.83770    0.60641    1.000
    Si2746   Si       0.26084    0.86549    0.64631    1.000
    N2747    N        0.34428    0.85264    0.69553    1.000
    Si2748   Si       0.33675    0.87760    0.66066    1.000
    Si2749   Si       0.24827    0.86475    0.71478    1.000
    N2750    N        0.25421    0.83812    0.68071    1.000
    N2751    N        0.28311    0.87057    0.73818    1.000
    N2752    N        0.46698    0.84480    0.71813    1.000
    Si2753   Si       0.43203    0.83908    0.63708    1.000
    Si2754   Si       0.45737    0.88277    0.69514    1.000
    Si2755   Si       0.43174    0.84219    0.74375    1.000
    N2756    N        0.42759    0.86715    0.66778    1.000
    N2757    N        0.27713    0.85696    0.80873    1.000
    Si2758   Si       0.35096    0.86792    0.85894    1.000
    N2759    N        0.31561    0.84640    0.86882    1.000
    Si2760   Si       0.28598    0.83891    0.77016    1.000
    N2761    N        0.36771    0.84679    0.82594    1.000
    Si2762   Si       0.37197    0.86808    0.78704    1.000
    N2763    N        0.44776    0.86119    0.78068    1.000
    N2764    N        0.48534    0.84802    0.84652    1.000
    N2765    N        0.38777    0.84593    0.75317    1.000
    Si2766   Si       0.46388    0.83516    0.80869    1.000
    Si2767   Si       0.26255    0.84783    0.94492    1.000
    N2768    N        0.26437    0.87998    0.91771    1.000
    N2769    N        0.29131    0.88524    0.97247    1.000
    Si2770   Si       0.30871    0.84923    0.99731    1.000
    N2771    N        0.37835    0.87332    0.89203    1.000
    Si2772   Si       0.39185    0.83579    0.90891    1.000
    Si2773   Si       0.45194    0.87654    0.92539    1.000
    N2774    N        0.46056    0.86338    0.96501    1.000
    N2775    N        0.43505    0.84403    0.90264    1.000
    N2776    N        0.31415    0.92103    0.08652    1.000
    Si2777   Si       0.27659    0.93792    0.10653    1.000
    N2778    N        0.30397    0.94640    0.02347    1.000
    Si2779   Si       0.33581    0.94288    0.05538    1.000
    N2780    N        0.25269    0.94103    0.06935    1.000
    Si2781   Si       0.31331    0.91563    0.99566    1.000
    N2782    N        0.37350    0.94150    0.03438    1.000
    N2783    N        0.47498    0.94056    0.02939    1.000
    Si2784   Si       0.48342    0.89844    0.04057    1.000
    N2785    N        0.32779    0.93246    0.17810    1.000
    Si2786   Si       0.29174    0.90839    0.17667    1.000
    N2787    N        0.25410    0.92371    0.19583    1.000
    N2788    N        0.28016    0.89646    0.13640    1.000
    Si2789   Si       0.43574    0.92569    0.11976    1.000
    Si2790   Si       0.36833    0.91660    0.16047    1.000
    Si2791   Si       0.41683    0.91365    0.24197    1.000
    Si2792   Si       0.46421    0.91250    0.18892    1.000
    N2793    N        0.46997    0.91957    0.14756    1.000
    N2794    N        0.42697    0.93236    0.20588    1.000
    N2795    N        0.39831    0.93882    0.13953    1.000
    N2796    N        0.32746    0.91480    0.30241    1.000
    N2797    N        0.26823    0.91139    0.26635    1.000
    N2798    N        0.35417    0.89879    0.36904    1.000
    Si2799   Si       0.36741    0.90130    0.29681    1.000
    N2800    N        0.44960    0.91904    0.26952    1.000
    N2801    N        0.39772    0.91698    0.32308    1.000
    N2802    N        0.46384    0.92544    0.34034    1.000
    Si2803   Si       0.43867    0.90767    0.31053    1.000
    N2804    N        0.37717    0.92523    0.26170    1.000
    Si2805   Si       0.38543    0.93048    0.36352    1.000
    N2806    N        0.24721    0.91183    0.42154    1.000
    N2807    N        0.34897    0.90190    0.44115    1.000
    Si2808   Si       0.32491    0.90050    0.40255    1.000
    Si2809   Si       0.27367    0.94271    0.43493    1.000
    N2810    N        0.31105    0.94076    0.40581    1.000
    N2811    N        0.27872    0.89284    0.49416    1.000
    Si2812   Si       0.34317    0.94479    0.43779    1.000
    Si2813   Si       0.43579    0.92884    0.42650    1.000
    Si2814   Si       0.45961    0.90026    0.37597    1.000
    N2815    N        0.47565    0.91314    0.41570    1.000
    N2816    N        0.41513    0.90700    0.45752    1.000
    N2817    N        0.41970    0.91537    0.38812    1.000
    Si2818   Si       0.38708    0.92512    0.48617    1.000
    Si2819   Si       0.28731    0.91588    0.56176    1.000
    N2820    N        0.29593    0.93620    0.59845    1.000
    N2821    N        0.28851    0.94367    0.52747    1.000
    N2822    N        0.35131    0.91074    0.50675    1.000
    N2823    N        0.24821    0.89844    0.55824    1.000
    Si2824   Si       0.31002    0.92219    0.49726    1.000
    N2825    N        0.45491    0.91554    0.56432    1.000
    N2826    N        0.41453    0.93340    0.51786    1.000
    Si2827   Si       0.43122    0.93806    0.59334    1.000
    N2828    N        0.39723    0.91703    0.60913    1.000
    Si2829   Si       0.42477    0.89559    0.53794    1.000
    Si2830   Si       0.49162    0.92636    0.54532    1.000
    Si2831   Si       0.30694    0.92897    0.68065    1.000
    N2832    N        0.30806    0.93726    0.72410    1.000
    N2833    N        0.34802    0.91893    0.66775    1.000
    N2834    N        0.29452    0.88908    0.66238    1.000
    N2835    N        0.45963    0.94649    0.62545    1.000
    N2836    N        0.46288    0.93453    0.69953    1.000
    Si2837   Si       0.37680    0.94013    0.64576    1.000
    Si2838   Si       0.48701    0.94230    0.73382    1.000
    Si2839   Si       0.41717    0.93421    0.71182    1.000
    N2840    N        0.40838    0.94969    0.67227    1.000
    N2841    N        0.42586    0.89521    0.72867    1.000
    N2842    N        0.27717    0.92352    0.78453    1.000
    N2843    N        0.34607    0.90986    0.84639    1.000
    N2844    N        0.27227    0.91070    0.85602    1.000
    Si2845   Si       0.30365    0.90556    0.75356    1.000
    Si2846   Si       0.31097    0.92975    0.86572    1.000
    Si2847   Si       0.26184    0.89734    0.81576    1.000
    N2848    N        0.33997    0.89222    0.77202    1.000
    Si2849   Si       0.38254    0.92674    0.82783    1.000
    N2850    N        0.46659    0.92742    0.76994    1.000
    N2851    N        0.40062    0.90357    0.79881    1.000
    N2852    N        0.47630    0.91793    0.83779    1.000
    N2853    N        0.41055    0.93227    0.86095    1.000
    Si2854   Si       0.43410    0.89965    0.77083    1.000
    Si2855   Si       0.44953    0.95091    0.85119    1.000
    N2856    N        0.34642    0.92766    0.97182    1.000
    Si2857   Si       0.28418    0.91352    0.93762    1.000
    N2858    N        0.31128    0.92877    0.90769    1.000
    Si2859   Si       0.24344    0.89325    0.88227    1.000
    Si2860   Si       0.33881    0.95059    0.93532    1.000
    N2861    N        0.26943    0.94880    0.95667    1.000
    N2862    N        0.47717    0.94321    0.95805    1.000
    Si2863   Si       0.39290    0.91495    0.89656    1.000
    N2864    N        0.42519    0.91237    0.92703    1.000
    Si2865   Si       0.38348    0.92175    0.99353    1.000
    Si2866   Si       0.43555    0.94906    0.94652    1.000
    N2867    N        0.48693    0.89392    0.90323    1.000
    N2868    N        0.33288    0.98511    0.07264    1.000
    Si2869   Si       0.26622    0.96421    0.03412    1.000
    Si2870   Si       0.32409    0.00072    0.11173    1.000
    N2871    N        0.35188    0.99885    0.00499    1.000
    N2872    N        0.28013    0.00596    0.03619    1.000
    Si2873   Si       0.38834    0.97663    0.01367    1.000
    Si2874   Si       0.43225    0.99310    0.07301    1.000
    N2875    N        0.41308    0.00348    0.03501    1.000
    N2876    N        0.47410    0.00279    0.06133    1.000
    N2877    N        0.44619    0.95716    0.09181    1.000
    N2878    N        0.40471    0.00788    0.10315    1.000
    Si2879   Si       0.48659    0.95963    0.06763    1.000
    N2880    N        0.31649    0.00125    0.19809    1.000
    N2881    N        0.29360    0.97449    0.12962    1.000
    N2882    N        0.35307    0.99081    0.14324    1.000
    Si2883   Si       0.25320    0.98661    0.14461    1.000
    Si2884   Si       0.32145    0.97312    0.16665    1.000
    N2885    N        0.25133    0.99129    0.18622    1.000
    Si2886   Si       0.48923    0.99052    0.23341    1.000
    N2887    N        0.44740    0.98752    0.24079    1.000
    Si2888   Si       0.39464    0.98276    0.13702    1.000
    Si2889   Si       0.41931    0.97438    0.20800    1.000
    N2890    N        0.37922    0.98644    0.22553    1.000
    N2891    N        0.42326    0.99457    0.16964    1.000
    N2892    N        0.33087    0.97958    0.27989    1.000
    Si2893   Si       0.25090    0.97390    0.34312    1.000
    N2894    N        0.35615    0.96567    0.34197    1.000
    N2895    N        0.29320    0.96528    0.34447    1.000
    Si2896   Si       0.32235    0.95580    0.31492    1.000
    N2897    N        0.24261    0.97106    0.30108    1.000
    N2898    N        0.27202    0.00917    0.25017    1.000
    Si2899   Si       0.36811    0.96781    0.26297    1.000
    N2900    N        0.41606    0.97838    0.35630    1.000
    Si2901   Si       0.38551    0.99511    0.32965    1.000
    N2902    N        0.39841    0.98685    0.29050    1.000
    N2903    N        0.46733    0.99205    0.30955    1.000
    Si2904   Si       0.45736    0.96806    0.34603    1.000
    Si2905   Si       0.43700    0.00564    0.28090    1.000
    Si2906   Si       0.32986    0.96972    0.37764    1.000
    N2907    N        0.26251    0.98373    0.42228    1.000
    Si2908   Si       0.30835    0.99469    0.48669    1.000
    N2909    N        0.30778    0.95248    0.46554    1.000
    N2910    N        0.48442    0.98424    0.37561    1.000
    Si2911   Si       0.38041    0.99826    0.48519    1.000
    N2912    N        0.36924    0.95673    0.40129    1.000
    Si2913   Si       0.47846    0.98721    0.42007    1.000
    N2914    N        0.37484    0.96098    0.46638    1.000
    Si2915   Si       0.40476    0.98386    0.39809    1.000
    N2916    N        0.43799    0.97266    0.42386    1.000
    Si2917   Si       0.25321    0.96138    0.50773    1.000
    N2918    N        0.34369    0.99979    0.51163    1.000
    N2919    N        0.26705    0.00408    0.50152    1.000
    N2920    N        0.31132    0.00712    0.60668    1.000
    N2921    N        0.48067    0.96544    0.52774    1.000
    N2922    N        0.42719    0.97518    0.57206    1.000
    Si2923   Si       0.43682    0.96933    0.52938    1.000
    N2924    N        0.41972    0.00122    0.50353    1.000
    Si2925   Si       0.31030    0.96672    0.62443    1.000
    N2926    N        0.35651    0.97281    0.62641    1.000
    Si2927   Si       0.25794    0.98616    0.68689    1.000
    N2928    N        0.28802    0.96319    0.66233    1.000
    Si2929   Si       0.31354    0.97697    0.74336    1.000
    N2930    N        0.34462    0.00418    0.72786    1.000
    N2931    N        0.28207    0.00330    0.71965    1.000
    N2932    N        0.46969    0.99718    0.67141    1.000
    Si2933   Si       0.38822    0.00009    0.72819    1.000
    N2934    N        0.40377    0.96003    0.74390    1.000
    Si2935   Si       0.44978    0.95841    0.66506    1.000
    N2936    N        0.31519    0.97057    0.85032    1.000
    N2937    N        0.30487    0.98507    0.78573    1.000
    Si2938   Si       0.26830    0.96431    0.79579    1.000
    Si2939   Si       0.27634    0.98908    0.86052    1.000
    Si2940   Si       0.33667    0.99163    0.81633    1.000
    N2941    N        0.24707    0.97280    0.83512    1.000
    N2942    N        0.37224    0.96498    0.80990    1.000
    N2943    N        0.43711    0.98246    0.81991    1.000
    Si2944   Si       0.40832    0.97609    0.78417    1.000
    N2945    N        0.48146    0.97267    0.87190    1.000
    N2946    N        0.32097    0.99061    0.94129    1.000
    N2947    N        0.26096    0.98156    0.90025    1.000
    Si2948   Si       0.27835    0.99127    0.93813    1.000
    N2949    N        0.43472    0.98595    0.92126    1.000
    N2950    N        0.37473    0.95203    0.91125    1.000
    Si2951   Si       0.39191    0.99222    0.90931    1.000
    N2952    N        0.40907    0.95551    0.98129    1.000
    N2953    N        0.54171    0.03870    0.08993    1.000
    Si2954   Si       0.59179    0.04724    0.01980    1.000
    N2955    N        0.51391    0.06000    0.03592    1.000
    N2956    N        0.56836    0.00933    0.03004    1.000
    Si2957   Si       0.61970    0.03538    0.09290    1.000
    N2958    N        0.62125    0.04578    0.05101    1.000
    N2959    N        0.65917    0.02087    0.10536    1.000
    N2960    N        0.69456    0.05296    0.05180    1.000
    Si2961   Si       0.65993    0.04972    0.02727    1.000
    Si2962   Si       0.69745    0.03934    0.09270    1.000
    N2963    N        0.66566    0.01418    0.00221    1.000
    N2964    N        0.59955    0.06006    0.12597    1.000
    Si2965   Si       0.55789    0.04818    0.12832    1.000
    N2966    N        0.55556    0.02547    0.21495    1.000
    Si2967   Si       0.52447    0.01723    0.18135    1.000
    N2968    N        0.49603    0.03256    0.23998    1.000
    N2969    N        0.55178    0.01105    0.14914    1.000
    N2970    N        0.73604    0.03674    0.15874    1.000
    N2971    N        0.62593    0.01186    0.22908    1.000
    Si2972   Si       0.72969    0.03863    0.20133    1.000
    N2973    N        0.68536    0.03929    0.20682    1.000
    N2974    N        0.58560    0.04968    0.27215    1.000
    Si2975   Si       0.56853    0.03683    0.31172    1.000
    N2976    N        0.53565    0.01634    0.29350    1.000
    Si2977   Si       0.53667    0.03939    0.25401    1.000
    N2978    N        0.59576    0.01014    0.33098    1.000
    N2979    N        0.68288    0.02749    0.34701    1.000
    Si2980   Si       0.62605    0.04326    0.25903    1.000
    N2981    N        0.64668    0.03903    0.29704    1.000
    Si2982   Si       0.72356    0.03601    0.33421    1.000
    N2983    N        0.74008    0.04053    0.28976    1.000
    Si2984   Si       0.64334    0.01076    0.33180    1.000
    Si2985   Si       0.54609    0.04412    0.39815    1.000
    N2986    N        0.54409    0.03544    0.44158    1.000
    N2987    N        0.58292    0.06717    0.39286    1.000
    N2988    N        0.51125    0.06592    0.38188    1.000
    Si2989   Si       0.67801    0.01122    0.39206    1.000
    N2990    N        0.71805    0.02663    0.40646    1.000
    Si2991   Si       0.70737    0.06397    0.42801    1.000
    N2992    N        0.65117    0.03781    0.41580    1.000
    N2993    N        0.69123    0.04844    0.46657    1.000
    Si2994   Si       0.65145    0.03074    0.45807    1.000
    N2995    N        0.61884    0.05394    0.47407    1.000
    Si2996   Si       0.62714    0.06913    0.39871    1.000
    Si2997   Si       0.52306    0.04680    0.53185    1.000
    Si2998   Si       0.60135    0.04480    0.51364    1.000
    N2999    N        0.55024    0.05224    0.60584    1.000
    N3000    N        0.55907    0.05849    0.51057    1.000
    N3001    N        0.49931    0.02769    0.50047    1.000
    Si3002   Si       0.53724    0.01306    0.59415    1.000
    N3003    N        0.73722    0.02104    0.51742    1.000
    Si3004   Si       0.70508    0.04571    0.61408    1.000
    N3005    N        0.67490    0.01759    0.53470    1.000
    Si3006   Si       0.70421    0.04595    0.50654    1.000
    N3007    N        0.73018    0.02846    0.58298    1.000
    Si3008   Si       0.66126    0.05704    0.55127    1.000
    N3009    N        0.67137    0.06278    0.59295    1.000
    N3010    N        0.61915    0.06663    0.54527    1.000
    N3011    N        0.49231    0.06193    0.63694    1.000
    Si3012   Si       0.58331    0.06295    0.63425    1.000
    Si3013   Si       0.52251    0.05538    0.67107    1.000
    N3014    N        0.49217    0.05268    0.70516    1.000
    N3015    N        0.53363    0.01402    0.67542    1.000
    N3016    N        0.60520    0.01141    0.73427    1.000
    Si3017   Si       0.49843    0.00928    0.70073    1.000
    Si3018   Si       0.68521    0.01241    0.68272    1.000
    N3019    N        0.67887    0.05285    0.69492    1.000
    N3020    N        0.62016    0.04188    0.64514    1.000
    Si3021   Si       0.62267    0.04911    0.74425    1.000
    N3022    N        0.69047    0.01310    0.63994    1.000
    Si3023   Si       0.64328    0.06787    0.67472    1.000
    N3024    N        0.55497    0.01721    0.78240    1.000
    Si3025   Si       0.55821    0.06110    0.77972    1.000
    Si3026   Si       0.49450    0.06748    0.81251    1.000
    Si3027   Si       0.68170    0.06433    0.78937    1.000
    Si3028   Si       0.71877    0.02478    0.83668    1.000
    N3029    N        0.65901    0.03689    0.76483    1.000
    N3030    N        0.72159    0.05694    0.80691    1.000
    N3031    N        0.68017    0.01211    0.82455    1.000
    N3032    N        0.58847    0.03889    0.91859    1.000
    Si3033   Si       0.60901    0.04399    0.88312    1.000
    N3034    N        0.53551    0.05513    0.96496    1.000
    N3035    N        0.60666    0.05033    0.97705    1.000
    Si3036   Si       0.59975    0.01469    0.95260    1.000
    Si3037   Si       0.52694    0.00962    0.96140    1.000
    Si3038   Si       0.67160    0.01019    0.95923    1.000
    N3039    N        0.71400    0.02982    0.88349    1.000
    N3040    N        0.66729    0.05177    0.94245    1.000
    Si3041   Si       0.68732    0.05986    0.90483    1.000
    N3042    N        0.65371    0.04694    0.87966    1.000
    N3043    N        0.54639    0.10987    0.07965    1.000
    N3044    N        0.56965    0.08399    0.01740    1.000
    Si3045   Si       0.56792    0.12153    0.04029    1.000
    Si3046   Si       0.51961    0.07532    0.07592    1.000
    Si3047   Si       0.52972    0.07984    0.99966    1.000
    Si3048   Si       0.71281    0.09192    0.03815    1.000
    Si3049   Si       0.67813    0.11399    0.10143    1.000
    N3050    N        0.65384    0.08817    0.00681    1.000
    N3051    N        0.70393    0.07993    0.11244    1.000
    N3052    N        0.68288    0.11857    0.05846    1.000
    N3053    N        0.63317    0.12321    0.10680    1.000
    Si3054   Si       0.65016    0.12446    0.03026    1.000
    N3055    N        0.72781    0.10004    0.99770    1.000
    N3056    N        0.53541    0.08089    0.14928    1.000
    Si3057   Si       0.54833    0.12066    0.16255    1.000
    N3058    N        0.59000    0.12195    0.16153    1.000
    Si3059   Si       0.49164    0.07481    0.14386    1.000
    Si3060   Si       0.61769    0.09814    0.14116    1.000
    N3061    N        0.69995    0.10903    0.20531    1.000
    N3062    N        0.65469    0.09440    0.16394    1.000
    Si3063   Si       0.66685    0.07773    0.20452    1.000
    N3064    N        0.63858    0.07903    0.23796    1.000
    Si3065   Si       0.59199    0.09278    0.35717    1.000
    Si3066   Si       0.52273    0.09438    0.34851    1.000
    Si3067   Si       0.50142    0.10959    0.27364    1.000
    Si3068   Si       0.57409    0.09175    0.28200    1.000
    N3069    N        0.53314    0.08189    0.26795    1.000
    N3070    N        0.56034    0.07842    0.32931    1.000
    N3071    N        0.49187    0.09522    0.31549    1.000
    N3072    N        0.58374    0.12247    0.25048    1.000
    N3073    N        0.61599    0.10332    0.29998    1.000
    N3074    N        0.63200    0.07560    0.35722    1.000
    Si3075   Si       0.62655    0.11382    0.25967    1.000
    N3076    N        0.68344    0.10246    0.32242    1.000
    Si3077   Si       0.70645    0.10296    0.36065    1.000
    Si3078   Si       0.64926    0.07687    0.31876    1.000
    N3079    N        0.73647    0.07369    0.35244    1.000
    Si3080   Si       0.54721    0.06985    0.47101    1.000
    N3081    N        0.50555    0.08551    0.46864    1.000
    N3082    N        0.56927    0.10798    0.46496    1.000
    Si3083   Si       0.61117    0.09560    0.46709    1.000
    N3084    N        0.69065    0.12260    0.46389    1.000
    Si3085   Si       0.73396    0.12352    0.46104    1.000
    Si3086   Si       0.67045    0.12220    0.42602    1.000
    N3087    N        0.62913    0.10404    0.42898    1.000
    N3088    N        0.69103    0.09548    0.40039    1.000
    Si3089   Si       0.51603    0.07926    0.60111    1.000
    N3090    N        0.52611    0.12042    0.59850    1.000
    N3091    N        0.59967    0.09882    0.61448    1.000
    N3092    N        0.50137    0.07030    0.56002    1.000
    Si3093   Si       0.57137    0.12401    0.59643    1.000
    Si3094   Si       0.61590    0.11101    0.54458    1.000
    N3095    N        0.62825    0.11580    0.50111    1.000
    N3096    N        0.68451    0.08240    0.52528    1.000
    Si3097   Si       0.64302    0.09516    0.60777    1.000
    N3098    N        0.64809    0.12371    0.57202    1.000
    Si3099   Si       0.67105    0.11719    0.50375    1.000
    N3100    N        0.72498    0.12719    0.57214    1.000
    Si3101   Si       0.50148    0.08154    0.73516    1.000
    N3102    N        0.54499    0.07400    0.74025    1.000
    Si3103   Si       0.57492    0.09080    0.70935    1.000
    N3104    N        0.56001    0.07618    0.66893    1.000
    N3105    N        0.61494    0.07277    0.70900    1.000
    Si3106   Si       0.69928    0.08428    0.71808    1.000
    N3107    N        0.68130    0.12286    0.70453    1.000
    N3108    N        0.65736    0.10026    0.64956    1.000
    N3109    N        0.73090    0.07758    0.63085    1.000
    N3110    N        0.73992    0.08452    0.70287    1.000
    N3111    N        0.53518    0.08267    0.80989    1.000
    Si3112   Si       0.51851    0.11987    0.83006    1.000
    Si3113   Si       0.58594    0.12039    0.86365    1.000
    N3114    N        0.54255    0.12594    0.86544    1.000
    N3115    N        0.60930    0.08561    0.87164    1.000
    N3116    N        0.59951    0.06902    0.77878    1.000
    Si3117   Si       0.62132    0.10181    0.79617    1.000
    N3118    N        0.69584    0.09549    0.76073    1.000
    N3119    N        0.65542    0.08474    0.81783    1.000
    Si3120   Si       0.65126    0.08641    0.85961    1.000
    Si3121   Si       0.72058    0.11754    0.86392    1.000
    N3122    N        0.63254    0.12793    0.76484    1.000
    Si3123   Si       0.57148    0.06788    0.94672    1.000
    Si3124   Si       0.53008    0.11822    0.90774    1.000
    N3125    N        0.50276    0.08446    0.90771    1.000
    N3126    N        0.56392    0.10796    0.93211    1.000
    N3127    N        0.49430    0.09949    0.98064    1.000
    Si3128   Si       0.49533    0.07044    0.94682    1.000
    N3129    N        0.68493    0.10238    0.88621    1.000
    Si3130   Si       0.64128    0.07764    0.96422    1.000
    N3131    N        0.63396    0.11326    0.93854    1.000
    N3132    N        0.72717    0.07328    0.92800    1.000
    Si3133   Si       0.72761    0.11030    0.95428    1.000
    Si3134   Si       0.53758    0.14846    0.09901    1.000
    N3135    N        0.53740    0.14553    0.02174    1.000
    N3136    N        0.57421    0.17399    0.09128    1.000
    N3137    N        0.50324    0.16473    0.07703    1.000
    Si3138   Si       0.49402    0.15161    0.03805    1.000
    N3139    N        0.60882    0.13309    0.04607    1.000
    Si3140   Si       0.55599    0.17945    0.99729    1.000
    Si3141   Si       0.61438    0.15590    0.08269    1.000
    N3142    N        0.66163    0.16299    0.01174    1.000
    N3143    N        0.64874    0.18257    0.07925    1.000
    N3144    N        0.52753    0.15029    0.14005    1.000
    Si3145   Si       0.55255    0.14774    0.23399    1.000
    Si3146   Si       0.50021    0.17497    0.16281    1.000
    N3147    N        0.52948    0.12713    0.20231    1.000
    N3148    N        0.56515    0.18893    0.22439    1.000
    N3149    N        0.69073    0.14783    0.12979    1.000
    Si3150   Si       0.73612    0.15203    0.13372    1.000
    Si3151   Si       0.67381    0.16865    0.23251    1.000
    N3152    N        0.66156    0.16492    0.19112    1.000
    Si3153   Si       0.67637    0.13085    0.17009    1.000
    N3154    N        0.71379    0.18362    0.23224    1.000
    N3155    N        0.52096    0.14944    0.26660    1.000
    Si3156   Si       0.55596    0.16251    0.36310    1.000
    N3157    N        0.52322    0.13353    0.36368    1.000
    N3158    N        0.55904    0.17818    0.32318    1.000
    Si3159   Si       0.52436    0.18348    0.29453    1.000
    N3160    N        0.49125    0.17871    0.32145    1.000
    N3161    N        0.58965    0.13378    0.37222    1.000
    N3162    N        0.72467    0.14831    0.29294    1.000
    N3163    N        0.65923    0.14143    0.26351    1.000
    N3164    N        0.67567    0.16885    0.32920    1.000
    N3165    N        0.72631    0.13948    0.36588    1.000
    Si3166   Si       0.72121    0.16696    0.33205    1.000
    Si3167   Si       0.65386    0.17910    0.36502    1.000
    Si3168   Si       0.68171    0.13769    0.29871    1.000
    Si3169   Si       0.56261    0.15076    0.46300    1.000
    Si3170   Si       0.61367    0.14219    0.40788    1.000
    N3171    N        0.59568    0.16622    0.43706    1.000
    N3172    N        0.52217    0.15760    0.44630    1.000
    Si3173   Si       0.50007    0.12820    0.47144    1.000
    N3174    N        0.65364    0.15648    0.40185    1.000
    Si3175   Si       0.54149    0.14852    0.53544    1.000
    Si3176   Si       0.52595    0.16367    0.60582    1.000
    N3177    N        0.50505    0.13766    0.51493    1.000
    N3178    N        0.52908    0.18123    0.56394    1.000
    N3179    N        0.56707    0.16460    0.61819    1.000
    N3180    N        0.56214    0.16875    0.50143    1.000
    N3181    N        0.57730    0.12909    0.55543    1.000
    Si3182   Si       0.68574    0.14557    0.56324    1.000
    N3183    N        0.68118    0.15450    0.52165    1.000
    N3184    N        0.68699    0.18292    0.58545    1.000
    N3185    N        0.57861    0.13266    0.71869    1.000
    N3186    N        0.50086    0.18469    0.63512    1.000
    Si3187   Si       0.60371    0.15596    0.74348    1.000
    N3188    N        0.72142    0.14627    0.64351    1.000
    Si3189   Si       0.73185    0.16826    0.73465    1.000
    N3190    N        0.63827    0.17513    0.72411    1.000
    Si3191   Si       0.69901    0.17988    0.62661    1.000
    Si3192   Si       0.68319    0.13300    0.66345    1.000
    Si3193   Si       0.66475    0.14329    0.73834    1.000
    N3194    N        0.66556    0.17388    0.65376    1.000
    Si3195   Si       0.60419    0.17223    0.81720    1.000
    N3196    N        0.49887    0.14895    0.80281    1.000
    N3197    N        0.59704    0.12875    0.82281    1.000
    N3198    N        0.59117    0.18130    0.77771    1.000
    N3199    N        0.69821    0.15927    0.76057    1.000
    Si3200   Si       0.68060    0.17129    0.84558    1.000
    N3201    N        0.70204    0.13654    0.82921    1.000
    Si3202   Si       0.71209    0.12915    0.78740    1.000
    N3203    N        0.64529    0.18238    0.82220    1.000
    N3204    N        0.50423    0.15302    0.91703    1.000
    N3205    N        0.59892    0.14961    0.89548    1.000
    N3206    N        0.58296    0.16355    0.96746    1.000
    Si3207   Si       0.59760    0.13621    0.93697    1.000
    Si3208   Si       0.67739    0.17116    0.97179    1.000
    N3209    N        0.64184    0.18520    0.94861    1.000
    N3210    N        0.69633    0.14066    0.94533    1.000
    Si3211   Si       0.66714    0.13438    0.91386    1.000
    N3212    N        0.67042    0.17000    0.88809    1.000
    N3213    N        0.52492    0.22626    0.10624    1.000
    N3214    N        0.58732    0.20564    0.01172    1.000
    Si3215   Si       0.56574    0.21484    0.10630    1.000
    Si3216   Si       0.60049    0.23892    0.03635    1.000
    N3217    N        0.50896    0.23792    0.02758    1.000
    N3218    N        0.58519    0.24161    0.07737    1.000
    Si3219   Si       0.73561    0.20194    0.07994    1.000
    Si3220   Si       0.72061    0.22523    0.01405    1.000
    N3221    N        0.64714    0.23414    0.03230    1.000
    N3222    N        0.70852    0.21657    0.11065    1.000
    Si3223   Si       0.66348    0.19532    0.04190    1.000
    N3224    N        0.70848    0.19774    0.04531    1.000
    Si3225   Si       0.67485    0.18789    0.11413    1.000
    N3226    N        0.51846    0.20974    0.18176    1.000
    Si3227   Si       0.56085    0.21528    0.19046    1.000
    N3228    N        0.57973    0.22106    0.15081    1.000
    N3229    N        0.63120    0.24424    0.18786    1.000
    Si3230   Si       0.73227    0.20735    0.19845    1.000
    N3231    N        0.70020    0.22837    0.17838    1.000
    Si3232   Si       0.61849    0.23596    0.14798    1.000
    N3233    N        0.65181    0.20677    0.23429    1.000
    N3234    N        0.64836    0.20421    0.14182    1.000
    Si3235   Si       0.65907    0.21031    0.18786    1.000
    N3236    N        0.59976    0.22147    0.28200    1.000
    Si3237   Si       0.58998    0.21203    0.32524    1.000
    N3238    N        0.52969    0.22199    0.27406    1.000
    Si3239   Si       0.56732    0.22284    0.25332    1.000
    N3240    N        0.61798    0.20180    0.35616    1.000
    N3241    N        0.72425    0.20834    0.32693    1.000
    Si3242   Si       0.68616    0.22981    0.33594    1.000
    Si3243   Si       0.63768    0.23478    0.26557    1.000
    N3244    N        0.66761    0.23987    0.29580    1.000
    N3245    N        0.67496    0.21736    0.37482    1.000
    N3246    N        0.50589    0.22536    0.43965    1.000
    N3247    N        0.57183    0.22520    0.46263    1.000
    N3248    N        0.54308    0.19806    0.38569    1.000
    Si3249   Si       0.60821    0.20450    0.45165    1.000
    Si3250   Si       0.53965    0.23984    0.37795    1.000
    Si3251   Si       0.51299    0.18885    0.41858    1.000
    N3252    N        0.64693    0.20371    0.47624    1.000
    N3253    N        0.62730    0.23522    0.42486    1.000
    N3254    N        0.71911    0.20276    0.48537    1.000
    Si3255   Si       0.63295    0.23486    0.38248    1.000
    N3256    N        0.52540    0.22934    0.51621    1.000
    N3257    N        0.59725    0.22321    0.52963    1.000
    Si3258   Si       0.51825    0.22149    0.55905    1.000
    N3259    N        0.60887    0.21869    0.60124    1.000
    Si3260   Si       0.56420    0.21341    0.50356    1.000
    Si3261   Si       0.58864    0.23536    0.56869    1.000
    N3262    N        0.73877    0.23274    0.56319    1.000
    Si3263   Si       0.69817    0.22280    0.57248    1.000
    N3264    N        0.67440    0.22454    0.53392    1.000
    Si3265   Si       0.68067    0.19395    0.50259    1.000
    N3266    N        0.68232    0.24712    0.60425    1.000
    Si3267   Si       0.58267    0.20205    0.63241    1.000
    N3268    N        0.55030    0.23315    0.63897    1.000
    Si3269   Si       0.50634    0.21288    0.73097    1.000
    Si3270   Si       0.51634    0.21757    0.65993    1.000
    N3271    N        0.60140    0.20423    0.67135    1.000
    N3272    N        0.53395    0.21435    0.69927    1.000
    Si3273   Si       0.57409    0.22873    0.69477    1.000
    N3274    N        0.58910    0.22969    0.73595    1.000
    Si3275   Si       0.64010    0.19334    0.68149    1.000
    Si3276   Si       0.63307    0.21817    0.73922    1.000
    N3277    N        0.72868    0.21019    0.63519    1.000
    Si3278   Si       0.69844    0.23579    0.70735    1.000
    N3279    N        0.71667    0.19507    0.70465    1.000
    N3280    N        0.65357    0.23147    0.70174    1.000
    N3281    N        0.51233    0.21135    0.83986    1.000
    N3282    N        0.52561    0.20266    0.76891    1.000
    Si3283   Si       0.55254    0.23046    0.84427    1.000
    Si3284   Si       0.56785    0.21823    0.77182    1.000
    N3285    N        0.57698    0.19500    0.84466    1.000
    Si3286   Si       0.49994    0.19241    0.80141    1.000
    N3287    N        0.69998    0.20923    0.83127    1.000
    Si3288   Si       0.66150    0.22409    0.81573    1.000
    N3289    N        0.65383    0.23223    0.77339    1.000
    Si3290   Si       0.72735    0.24120    0.82328    1.000
    N3291    N        0.60255    0.23831    0.95522    1.000
    N3292    N        0.55470    0.20474    0.91224    1.000
    N3293    N        0.52273    0.19538    0.97282    1.000
    Si3294   Si       0.51855    0.19385    0.93057    1.000
    Si3295   Si       0.58523    0.18885    0.88727    1.000
    Si3296   Si       0.60771    0.20064    0.97170    1.000
    Si3297   Si       0.57408    0.24402    0.91949    1.000
    N3298    N        0.61406    0.22154    0.89340    1.000
    N3299    N        0.70332    0.20828    0.97784    1.000
    Si3300   Si       0.65019    0.20441    0.90817    1.000
    Si3301   Si       0.71347    0.22886    0.94133    1.000
    N3302    N        0.67930    0.23526    0.91711    1.000
    Si3303   Si       0.58952    0.27936    0.10126    1.000
    N3304    N        0.59339    0.27746    0.01375    1.000
    Si3305   Si       0.51685    0.26658    0.12021    1.000
    N3306    N        0.49603    0.28574    0.08321    1.000
    Si3307   Si       0.67022    0.27432    0.03354    1.000
    N3308    N        0.71228    0.26361    0.03015    1.000
    Si3309   Si       0.66036    0.29581    0.11253    1.000
    N3310    N        0.66143    0.29856    0.06948    1.000
    N3311    N        0.62678    0.27053    0.12210    1.000
    N3312    N        0.55633    0.28232    0.12892    1.000
    Si3313   Si       0.53806    0.28222    0.22395    1.000
    N3314    N        0.49888    0.26134    0.22823    1.000
    Si3315   Si       0.60716    0.27124    0.20783    1.000
    N3316    N        0.56792    0.25139    0.21714    1.000
    N3317    N        0.60061    0.30579    0.18286    1.000
    N3318    N        0.62680    0.27098    0.24700    1.000
    N3319    N        0.69870    0.28620    0.13082    1.000
    Si3320   Si       0.71444    0.24815    0.14285    1.000
    Si3321   Si       0.59381    0.28282    0.35128    1.000
    N3322    N        0.57112    0.24669    0.34814    1.000
    N3323    N        0.50081    0.25455    0.36529    1.000
    Si3324   Si       0.49475    0.25117    0.27089    1.000
    N3325    N        0.55037    0.30321    0.25850    1.000
    Si3326   Si       0.69909    0.27186    0.29535    1.000
    N3327    N        0.69682    0.27424    0.33925    1.000
    N3328    N        0.73320    0.25333    0.27830    1.000
    N3329    N        0.63348    0.27363    0.36489    1.000
    Si3330   Si       0.67049    0.29859    0.36379    1.000
    N3331    N        0.55164    0.26953    0.40893    1.000
    N3332    N        0.53210    0.28146    0.47381    1.000
    Si3333   Si       0.54105    0.25035    0.44496    1.000
    Si3334   Si       0.65346    0.24559    0.45875    1.000
    N3335    N        0.63406    0.26835    0.49140    1.000
    N3336    N        0.69217    0.26518    0.45244    1.000
    Si3337   Si       0.72499    0.24685    0.47688    1.000
    Si3338   Si       0.50554    0.26726    0.50460    1.000
    N3339    N        0.49909    0.29256    0.54039    1.000
    Si3340   Si       0.54046    0.26720    0.61430    1.000
    N3341    N        0.49894    0.27726    0.61380    1.000
    N3342    N        0.54778    0.24909    0.57437    1.000
    N3343    N        0.62407    0.26809    0.56657    1.000
    Si3344   Si       0.63973    0.25112    0.60531    1.000
    Si3345   Si       0.63524    0.24647    0.52876    1.000
    N3346    N        0.74124    0.27572    0.50245    1.000
    N3347    N        0.58817    0.27172    0.68464    1.000
    N3348    N        0.63229    0.27322    0.64028    1.000
    Si3349   Si       0.71093    0.25224    0.63640    1.000
    N3350    N        0.70859    0.25769    0.74372    1.000
    N3351    N        0.70879    0.26369    0.67693    1.000
    Si3352   Si       0.63426    0.26783    0.68287    1.000
    N3353    N        0.65890    0.29987    0.69677    1.000
    Si3354   Si       0.56100    0.29056    0.80349    1.000
    Si3355   Si       0.49451    0.28732    0.76273    1.000
    N3356    N        0.53745    0.29834    0.76753    1.000
    N3357    N        0.56314    0.24717    0.80460    1.000
    Si3358   Si       0.61143    0.25792    0.86716    1.000
    N3359    N        0.64136    0.25581    0.83803    1.000
    N3360    N        0.69512    0.26863    0.80791    1.000
    Si3361   Si       0.67698    0.26867    0.76909    1.000
    Si3362   Si       0.67012    0.28719    0.83999    1.000
    Si3363   Si       0.73574    0.29633    0.86933    1.000
    N3364    N        0.56710    0.25913    0.87473    1.000
    Si3365   Si       0.59723    0.27656    0.97099    1.000
    N3366    N        0.50398    0.29445    0.98253    1.000
    N3367    N        0.56338    0.28049    0.94298    1.000
    Si3368   Si       0.54671    0.30018    0.87715    1.000
    N3369    N        0.73652    0.26254    0.95727    1.000
    N3370    N        0.68565    0.30082    0.94293    1.000
    Si3371   Si       0.67031    0.27662    0.90951    1.000
    N3372    N        0.62992    0.28703    0.89414    1.000
    N3373    N        0.69458    0.28303    0.87359    1.000
    N3374    N        0.54808    0.33751    0.02174    1.000
    Si3375   Si       0.58315    0.31299    0.03478    1.000
    N3376    N        0.58828    0.31690    0.08022    1.000
    N3377    N        0.61012    0.34644    0.02492    1.000
    Si3378   Si       0.58442    0.35803    0.09863    1.000
    Si3379   Si       0.51344    0.33648    0.99689    1.000
    Si3380   Si       0.64746    0.33449    0.04334    1.000
    N3381    N        0.71798    0.35260    0.10660    1.000
    N3382    N        0.66325    0.31034    0.00908    1.000
    N3383    N        0.49574    0.33133    0.13330    1.000
    N3384    N        0.56109    0.34899    0.13575    1.000
    Si3385   Si       0.56409    0.31332    0.16045    1.000
    N3386    N        0.53158    0.30946    0.19052    1.000
    Si3387   Si       0.49172    0.30902    0.17405    1.000
    Si3388   Si       0.65180    0.30765    0.24521    1.000
    Si3389   Si       0.70323    0.33012    0.13786    1.000
    N3390    N        0.72149    0.34445    0.17454    1.000
    N3391    N        0.65786    0.33461    0.13670    1.000
    Si3392   Si       0.70804    0.32699    0.21268    1.000
    Si3393   Si       0.63711    0.32971    0.17595    1.000
    N3394    N        0.66671    0.31941    0.20414    1.000
    N3395    N        0.71063    0.35647    0.24403    1.000
    N3396    N        0.52824    0.32929    0.32971    1.000
    Si3397   Si       0.52248    0.32214    0.28652    1.000
    Si3398   Si       0.57030    0.34370    0.33114    1.000
    Si3399   Si       0.58648    0.31932    0.27396    1.000
    Si3400   Si       0.49716    0.34157    0.35715    1.000
    N3401    N        0.57173    0.35729    0.29012    1.000
    N3402    N        0.50993    0.35813    0.26764    1.000
    N3403    N        0.59590    0.30466    0.31355    1.000
    N3404    N        0.68081    0.30716    0.27702    1.000
    N3405    N        0.65278    0.33757    0.35544    1.000
    Si3406   Si       0.70084    0.34400    0.28586    1.000
    N3407    N        0.72409    0.33424    0.32188    1.000
    Si3408   Si       0.72536    0.33295    0.36626    1.000
    N3409    N        0.61691    0.33420    0.24891    1.000
    N3410    N        0.58246    0.31935    0.37411    1.000
    Si3411   Si       0.55659    0.31626    0.47698    1.000
    N3412    N        0.56358    0.33898    0.43964    1.000
    N3413    N        0.51275    0.33192    0.39681    1.000
    Si3414   Si       0.55166    0.31347    0.40438    1.000
    Si3415   Si       0.61563    0.34971    0.37561    1.000
    N3416    N        0.65854    0.32822    0.45999    1.000
    N3417    N        0.72608    0.32731    0.45724    1.000
    Si3418   Si       0.63687    0.31156    0.49513    1.000
    N3419    N        0.69685    0.30978    0.39591    1.000
    Si3420   Si       0.69189    0.30683    0.43868    1.000
    N3421    N        0.57938    0.32790    0.55894    1.000
    Si3422   Si       0.56255    0.34151    0.59796    1.000
    N3423    N        0.51849    0.34504    0.58981    1.000
    Si3424   Si       0.57682    0.35278    0.52240    1.000
    N3425    N        0.53636    0.34192    0.51070    1.000
    Si3426   Si       0.51153    0.33310    0.54696    1.000
    N3427    N        0.56719    0.30139    0.61894    1.000
    N3428    N        0.59592    0.32371    0.49459    1.000
    Si3429   Si       0.61904    0.30992    0.56303    1.000
    N3430    N        0.65051    0.32367    0.53303    1.000
    N3431    N        0.63200    0.32778    0.60195    1.000
    Si3432   Si       0.69061    0.33828    0.54641    1.000
    Si3433   Si       0.66945    0.34581    0.61629    1.000
    Si3434   Si       0.72717    0.31080    0.60440    1.000
    N3435    N        0.71340    0.30496    0.56287    1.000
    Si3436   Si       0.60939    0.30819    0.63268    1.000
    Si3437   Si       0.57731    0.31351    0.69284    1.000
    N3438    N        0.60380    0.33573    0.66678    1.000
    N3439    N        0.59807    0.31564    0.73287    1.000
    N3440    N        0.54440    0.33860    0.70619    1.000
    Si3441   Si       0.55984    0.33047    0.74796    1.000
    N3442    N        0.48659    0.36054    0.67091    1.000
    N3443    N        0.72368    0.34009    0.69021    1.000
    N3444    N        0.69370    0.31267    0.63268    1.000
    Si3445   Si       0.64076    0.32424    0.72845    1.000
    Si3446   Si       0.69703    0.30701    0.67631    1.000
    N3447    N        0.59654    0.31661    0.80545    1.000
    Si3448   Si       0.49662    0.31506    0.82097    1.000
    N3449    N        0.55820    0.36126    0.77674    1.000
    N3450    N        0.53524    0.30355    0.83613    1.000
    Si3451   Si       0.58798    0.35884    0.80795    1.000
    Si3452   Si       0.70176    0.35193    0.83925    1.000
    Si3453   Si       0.63771    0.32935    0.79748    1.000
    N3454    N        0.66416    0.32897    0.83228    1.000
    N3455    N        0.73425    0.32292    0.83422    1.000
    N3456    N        0.65545    0.30814    0.76556    1.000
    N3457    N        0.52943    0.34778    0.95729    1.000
    Si3458   Si       0.61121    0.32143    0.91508    1.000
    N3459    N        0.57444    0.33077    0.89227    1.000
    N3460    N        0.51385    0.30687    0.90490    1.000
    Si3461   Si       0.52812    0.30579    0.94628    1.000
    Si3462   Si       0.72943    0.30402    0.94988    1.000
    N3463    N        0.62033    0.31199    0.95594    1.000
    Si3464   Si       0.66085    0.32406    0.96888    1.000
    N3465    N        0.62471    0.36259    0.90860    1.000
    N3466    N        0.56624    0.38326    0.06785    1.000
    Si3467   Si       0.53226    0.40901    0.07508    1.000
    N3468    N        0.51157    0.39612    0.11227    1.000
    N3469    N        0.51043    0.40259    0.03546    1.000
    Si3470   Si       0.57446    0.37375    0.02496    1.000
    N3471    N        0.61434    0.38569    0.11932    1.000
    Si3472   Si       0.52988    0.42365    0.00342    1.000
    Si3473   Si       0.72258    0.39687    0.11030    1.000
    Si3474   Si       0.65500    0.37267    0.11223    1.000
    N3475    N        0.73286    0.41920    0.07309    1.000
    N3476    N        0.72566    0.40357    0.99606    1.000
    N3477    N        0.65973    0.36728    0.06811    1.000
    N3478    N        0.68187    0.40616    0.12187    1.000
    N3479    N        0.57093    0.42051    0.16750    1.000
    Si3480   Si       0.54312    0.40875    0.19847    1.000
    Si3481   Si       0.60637    0.37284    0.22968    1.000
    Si3482   Si       0.60900    0.40199    0.15747    1.000
    N3483    N        0.56670    0.39083    0.23131    1.000
    N3484    N        0.51559    0.38108    0.18112    1.000
    Si3485   Si       0.52321    0.36676    0.14163    1.000
    Si3486   Si       0.72275    0.39516    0.23266    1.000
    N3487    N        0.61903    0.37156    0.18687    1.000
    N3488    N        0.69362    0.41725    0.21071    1.000
    Si3489   Si       0.54599    0.38403    0.26923    1.000
    N3490    N        0.59171    0.37651    0.35080    1.000
    Si3491   Si       0.49585    0.41419    0.31951    1.000
    N3492    N        0.49726    0.38542    0.35284    1.000
    Si3493   Si       0.61017    0.41570    0.34503    1.000
    N3494    N        0.53516    0.41733    0.29615    1.000
    N3495    N        0.68495    0.38000    0.30541    1.000
    Si3496   Si       0.67612    0.37369    0.34754    1.000
    N3497    N        0.65204    0.41082    0.35748    1.000
    N3498    N        0.73461    0.41419    0.27002    1.000
    Si3499   Si       0.70345    0.41832    0.29944    1.000
    N3500    N        0.63741    0.39769    0.24542    1.000
    N3501    N        0.56077    0.41306    0.43754    1.000
    Si3502   Si       0.58644    0.37711    0.44074    1.000
    N3503    N        0.50471    0.40388    0.49450    1.000
    N3504    N        0.49469    0.39330    0.42860    1.000
    Si3505   Si       0.52096    0.41457    0.45525    1.000
    Si3506   Si       0.49987    0.36127    0.49553    1.000
    Si3507   Si       0.64911    0.36827    0.44779    1.000
    Si3508   Si       0.71055    0.39818    0.40963    1.000
    Si3509   Si       0.71765    0.36734    0.47481    1.000
    N3510    N        0.62067    0.36603    0.41523    1.000
    N3511    N        0.61906    0.38874    0.47414    1.000
    N3512    N        0.69023    0.38471    0.44568    1.000
    N3513    N        0.70869    0.37224    0.37590    1.000
    N3514    N        0.58008    0.39372    0.53166    1.000
    N3515    N        0.51397    0.40502    0.56613    1.000
    N3516    N        0.57123    0.38863    0.60327    1.000
    Si3517   Si       0.55867    0.41070    0.56532    1.000
    Si3518   Si       0.49904    0.38302    0.60082    1.000
    Si3519   Si       0.61551    0.40889    0.51194    1.000
    N3520    N        0.64988    0.41023    0.53648    1.000
    Si3521   Si       0.67568    0.40841    0.57182    1.000
    N3522    N        0.68623    0.36722    0.58130    1.000
    N3523    N        0.70724    0.36574    0.51671    1.000
    Si3524   Si       0.73594    0.39453    0.53177    1.000
    Si3525   Si       0.74033    0.40202    0.59560    1.000
    N3526    N        0.51170    0.38866    0.73267    1.000
    N3527    N        0.54279    0.40320    0.66668    1.000
    Si3528   Si       0.57790    0.40950    0.64022    1.000
    Si3529   Si       0.52194    0.37390    0.69359    1.000
    N3530    N        0.61215    0.40617    0.66823    1.000
    N3531    N        0.49168    0.41734    0.62691    1.000
    N3532    N        0.73140    0.39453    0.63718    1.000
    N3533    N        0.66898    0.36460    0.65609    1.000
    N3534    N        0.71068    0.40746    0.70419    1.000
    N3535    N        0.64067    0.36498    0.71673    1.000
    Si3536   Si       0.63118    0.36718    0.67536    1.000
    Si3537   Si       0.70764    0.37979    0.67139    1.000
    N3538    N        0.58971    0.37978    0.84541    1.000
    Si3539   Si       0.51672    0.37424    0.77384    1.000
    N3540    N        0.51434    0.40669    0.79975    1.000
    N3541    N        0.70050    0.38123    0.80778    1.000
    N3542    N        0.62735    0.37094    0.78675    1.000
    Si3543   Si       0.66184    0.39788    0.80000    1.000
    Si3544   Si       0.62767    0.39180    0.74834    1.000
    N3545    N        0.66310    0.41512    0.75933    1.000
    N3546    N        0.71638    0.37395    0.87361    1.000
    Si3547   Si       0.58250    0.41482    0.95550    1.000
    N3548    N        0.50018    0.37962    0.90255    1.000
    Si3549   Si       0.52774    0.38554    0.93555    1.000
    N3550    N        0.56496    0.40024    0.91852    1.000
    Si3551   Si       0.58634    0.37360    0.88907    1.000
    N3552    N        0.50927    0.41689    0.96289    1.000
    N3553    N        0.56860    0.40413    0.99500    1.000
    Si3554   Si       0.72007    0.37340    0.96715    1.000
    N3555    N        0.67222    0.41554    0.90536    1.000
    N3556    N        0.73648    0.38697    0.93028    1.000
    Si3557   Si       0.71529    0.41119    0.89928    1.000
    Si3558   Si       0.65118    0.38799    0.93368    1.000
    N3559    N        0.62463    0.41307    0.95676    1.000
    N3560    N        0.67741    0.36479    0.96220    1.000
    N3561    N        0.53271    0.45200    0.07254    1.000
    N3562    N        0.58139    0.47203    0.11765    1.000
    Si3563   Si       0.49013    0.46118    0.07094    1.000
    N3564    N        0.72781    0.47447    0.01229    1.000
    N3565    N        0.65215    0.47589    0.11141    1.000
    N3566    N        0.52411    0.47927    0.15011    1.000
    N3567    N        0.52330    0.44602    0.21141    1.000
    Si3568   Si       0.56452    0.46191    0.15651    1.000
    Si3569   Si       0.50231    0.47833    0.18534    1.000
    Si3570   Si       0.52250    0.47796    0.24291    1.000
    N3571    N        0.70559    0.46348    0.15148    1.000
    Si3572   Si       0.66947    0.44476    0.13511    1.000
    N3573    N        0.63824    0.45735    0.23805    1.000
    N3574    N        0.63994    0.43355    0.16796    1.000
    Si3575   Si       0.70927    0.45331    0.19290    1.000
    Si3576   Si       0.64862    0.42212    0.21016    1.000
    Si3577   Si       0.56519    0.45022    0.30109    1.000
    N3578    N        0.60374    0.42877    0.30360    1.000
    N3579    N        0.55544    0.48030    0.27027    1.000
    N3580    N        0.48851    0.45701    0.32918    1.000
    N3581    N        0.67589    0.44890    0.28741    1.000
    Si3582   Si       0.68109    0.44392    0.36248    1.000
    N3583    N        0.71525    0.43557    0.33788    1.000
    Si3584   Si       0.63705    0.43211    0.27389    1.000
    N3585    N        0.59475    0.44303    0.37604    1.000
    N3586    N        0.51170    0.45744    0.45326    1.000
    Si3587   Si       0.55923    0.44204    0.40465    1.000
    N3588    N        0.51953    0.44054    0.38579    1.000
    Si3589   Si       0.49563    0.47171    0.49247    1.000
    N3590    N        0.69532    0.43700    0.40173    1.000
    N3591    N        0.73256    0.46621    0.45337    1.000
    Si3592   Si       0.69445    0.46975    0.43159    1.000
    N3593    N        0.66023    0.46962    0.45669    1.000
    N3594    N        0.55622    0.45359    0.55913    1.000
    Si3595   Si       0.59037    0.47142    0.53969    1.000
    N3596    N        0.60782    0.45192    0.50556    1.000
    Si3597   Si       0.62770    0.46029    0.60998    1.000
    Si3598   Si       0.72923    0.46140    0.54844    1.000
    N3599    N        0.65372    0.42815    0.60210    1.000
    N3600    N        0.71556    0.42122    0.56201    1.000
    N3601    N        0.59727    0.41857    0.73522    1.000
    N3602    N        0.58862    0.45014    0.62669    1.000
    Si3603   Si       0.50249    0.43045    0.73194    1.000
    Si3604   Si       0.51306    0.43627    0.65823    1.000
    Si3605   Si       0.60987    0.43745    0.69909    1.000
    N3606    N        0.52642    0.47840    0.64732    1.000
    N3607    N        0.58269    0.47153    0.69189    1.000
    N3608    N        0.65274    0.44936    0.69834    1.000
    Si3609   Si       0.68443    0.43445    0.72648    1.000
    N3610    N        0.70398    0.47002    0.73650    1.000
    Si3611   Si       0.57634    0.44701    0.75991    1.000
    N3612    N        0.58784    0.44559    0.80312    1.000
    Si3613   Si       0.51526    0.43697    0.82884    1.000
    N3614    N        0.54517    0.42841    0.85667    1.000
    Si3615   Si       0.58410    0.42336    0.84021    1.000
    N3616    N        0.51823    0.47662    0.81177    1.000
    Si3617   Si       0.50511    0.47742    0.77095    1.000
    N3618    N        0.53600    0.45451    0.74622    1.000
    N3619    N        0.65234    0.42474    0.83301    1.000
    Si3620   Si       0.72867    0.46106    0.77052    1.000
    N3621    N        0.70865    0.45816    0.80953    1.000
    Si3622   Si       0.67001    0.46718    0.82471    1.000
    N3623    N        0.66325    0.47449    0.86718    1.000
    N3624    N        0.51700    0.45115    0.90955    1.000
    N3625    N        0.60366    0.43583    0.87985    1.000
    N3626    N        0.56995    0.45732    0.94682    1.000
    Si3627   Si       0.56236    0.44276    0.89618    1.000
    Si3628   Si       0.52287    0.46149    0.95144    1.000
    N3629    N        0.53204    0.46797    0.99384    1.000
    Si3630   Si       0.57470    0.47874    0.98728    1.000
    N3631    N        0.68050    0.46088    0.97649    1.000
    Si3632   Si       0.64683    0.43559    0.87420    1.000
    N3633    N        0.73231    0.44830    0.88393    1.000
    Si3634   Si       0.72125    0.44358    0.98226    1.000
    Si3635   Si       0.64169    0.45291    0.96334    1.000
    N3636    N        0.61825    0.47294    0.99377    1.000
    N3637    N        0.53758    0.51590    0.07730    1.000
    Si3638   Si       0.52884    0.50032    0.03172    1.000
    N3639    N        0.57328    0.48855    0.03208    1.000
    N3640    N        0.61135    0.50904    0.07569    1.000
    N3641    N        0.52253    0.53698    0.00768    1.000
    Si3642   Si       0.61560    0.50086    0.11809    1.000
    Si3643   Si       0.51842    0.50563    0.11482    1.000
    Si3644   Si       0.57054    0.48355    0.07468    1.000
    Si3645   Si       0.62048    0.49731    0.03339    1.000
    Si3646   Si       0.68990    0.49231    0.00660    1.000
    Si3647   Si       0.67236    0.50441    0.08359    1.000
    N3648    N        0.71478    0.50683    0.09532    1.000
    N3649    N        0.66646    0.49487    0.04157    1.000
    N3650    N        0.62065    0.53884    0.01997    1.000
    N3651    N        0.51427    0.50993    0.21489    1.000
    Si3652   Si       0.60395    0.52343    0.18878    1.000
    N3653    N        0.58459    0.48538    0.18611    1.000
    N3654    N        0.61172    0.53352    0.14792    1.000
    N3655    N        0.68522    0.53474    0.15265    1.000
    Si3656   Si       0.71545    0.50459    0.14085    1.000
    Si3657   Si       0.67831    0.52915    0.19476    1.000
    N3658    N        0.63944    0.52176    0.21761    1.000
    N3659    N        0.69545    0.49066    0.21168    1.000
    Si3660   Si       0.66357    0.49055    0.24068    1.000
    Si3661   Si       0.56078    0.51329    0.29780    1.000
    N3662    N        0.57090    0.48595    0.32878    1.000
    N3663    N        0.52454    0.53311    0.29530    1.000
    Si3664   Si       0.59051    0.48657    0.36625    1.000
    N3665    N        0.67339    0.51387    0.27610    1.000
    N3666    N        0.73136    0.49208    0.30842    1.000
    Si3667   Si       0.68903    0.48538    0.30640    1.000
    N3668    N        0.66929    0.48289    0.34709    1.000
    N3669    N        0.51696    0.52908    0.45173    1.000
    Si3670   Si       0.51963    0.49258    0.42503    1.000
    Si3671   Si       0.58983    0.51921    0.42304    1.000
    N3672    N        0.56086    0.48497    0.41037    1.000
    N3673    N        0.60906    0.51248    0.46328    1.000
    Si3674   Si       0.65874    0.51433    0.37510    1.000
    N3675    N        0.68639    0.50671    0.40937    1.000
    Si3676   Si       0.63188    0.48300    0.48513    1.000
    N3677    N        0.61722    0.51318    0.38794    1.000
    Si3678   Si       0.73682    0.49924    0.48214    1.000
    N3679    N        0.72462    0.53740    0.46418    1.000
    N3680    N        0.58516    0.51270    0.52701    1.000
    N3681    N        0.50880    0.50564    0.58144    1.000
    N3682    N        0.52696    0.49557    0.51011    1.000
    Si3683   Si       0.54928    0.53173    0.50917    1.000
    Si3684   Si       0.52074    0.47727    0.55157    1.000
    N3685    N        0.61802    0.48407    0.57366    1.000
    Si3686   Si       0.62094    0.52514    0.55680    1.000
    Si3687   Si       0.68732    0.51010    0.54020    1.000
    N3688    N        0.71430    0.48709    0.51680    1.000
    N3689    N        0.64774    0.50871    0.51977    1.000
    N3690    N        0.70674    0.48958    0.57933    1.000
    Si3691   Si       0.71515    0.50093    0.61923    1.000
    Si3692   Si       0.49907    0.50437    0.62406    1.000
    N3693    N        0.58567    0.52379    0.63935    1.000
    Si3694   Si       0.58020    0.50597    0.72014    1.000
    Si3695   Si       0.57006    0.48462    0.65315    1.000
    N3696    N        0.54563    0.53403    0.72163    1.000
    N3697    N        0.70747    0.48172    0.65832    1.000
    N3698    N        0.66793    0.51746    0.70448    1.000
    Si3699   Si       0.66676    0.48478    0.67510    1.000
    N3700    N        0.73570    0.52486    0.70955    1.000
    Si3701   Si       0.62865    0.52829    0.63183    1.000
    Si3702   Si       0.70043    0.51280    0.73291    1.000
    N3703    N        0.64386    0.48993    0.63881    1.000
    N3704    N        0.58883    0.52148    0.82273    1.000
    N3705    N        0.59256    0.48765    0.75656    1.000
    Si3706   Si       0.60290    0.48653    0.79890    1.000
    Si3707   Si       0.58094    0.52162    0.86709    1.000
    N3708    N        0.72330    0.50763    0.84718    1.000
    N3709    N        0.64564    0.49412    0.80104    1.000
    N3710    N        0.69844    0.52776    0.77358    1.000
    Si3711   Si       0.65820    0.53513    0.78886    1.000
    N3712    N        0.49722    0.52138    0.87313    1.000
    N3713    N        0.56491    0.49061    0.89170    1.000
    N3714    N        0.51054    0.50574    0.94297    1.000
    Si3715   Si       0.52029    0.49383    0.89897    1.000
    Si3716   Si       0.59127    0.49337    0.92621    1.000
    N3717    N        0.57801    0.51789    0.96428    1.000
    Si3718   Si       0.53445    0.53493    0.96533    1.000
    Si3719   Si       0.72268    0.52924    0.88442    1.000
    N3720    N        0.68805    0.52465    0.91249    1.000
    N3721    N        0.61686    0.52795    0.89077    1.000
    N3722    N        0.63397    0.47929    0.92879    1.000
    N3723    N        0.69533    0.53144    0.98766    1.000
    Si3724   Si       0.65358    0.50309    0.89831    1.000
    N3725    N        0.58608    0.56841    0.09086    1.000
    N3726    N        0.51544    0.58088    0.06424    1.000
    Si3727   Si       0.54327    0.55771    0.08881    1.000
    Si3728   Si       0.49698    0.57015    0.02714    1.000
    Si3729   Si       0.62377    0.55436    0.06134    1.000
    Si3730   Si       0.71757    0.55871    0.01330    1.000
    N3731    N        0.69547    0.58735    0.03650    1.000
    N3732    N        0.65990    0.54673    0.08904    1.000
    N3733    N        0.62538    0.59680    0.05021    1.000
    Si3734   Si       0.60467    0.57219    0.13190    1.000
    N3735    N        0.53067    0.58593    0.20951    1.000
    Si3736   Si       0.57153    0.58856    0.19667    1.000
    Si3737   Si       0.50291    0.55162    0.21006    1.000
    N3738    N        0.58759    0.55421    0.21481    1.000
    N3739    N        0.52394    0.54692    0.12782    1.000
    N3740    N        0.69837    0.55951    0.22090    1.000
    N3741    N        0.64380    0.59136    0.14165    1.000
    Si3742   Si       0.67371    0.56630    0.12509    1.000
    Si3743   Si       0.58130    0.58057    0.30090    1.000
    N3744    N        0.55751    0.58124    0.33739    1.000
    N3745    N        0.59355    0.53981    0.28431    1.000
    Si3746   Si       0.52324    0.59692    0.31233    1.000
    Si3747   Si       0.61751    0.54485    0.24808    1.000
    N3748    N        0.72500    0.56366    0.28667    1.000
    Si3749   Si       0.68757    0.55362    0.26457    1.000
    N3750    N        0.64825    0.57362    0.26342    1.000
    N3751    N        0.67068    0.55264    0.36198    1.000
    N3752    N        0.56935    0.56159    0.48520    1.000
    N3753    N        0.50698    0.56493    0.38592    1.000
    N3754    N        0.56793    0.55673    0.41411    1.000
    Si3755   Si       0.54744    0.58085    0.38058    1.000
    Si3756   Si       0.54213    0.56416    0.44847    1.000
    Si3757   Si       0.73772    0.57603    0.47601    1.000
    N3758    N        0.68746    0.57668    0.42263    1.000
    Si3759   Si       0.67923    0.58974    0.37949    1.000
    Si3760   Si       0.71256    0.53971    0.42009    1.000
    N3761    N        0.64424    0.57180    0.48427    1.000
    Si3762   Si       0.67066    0.59504    0.45907    1.000
    N3763    N        0.55918    0.56931    0.59020    1.000
    N3764    N        0.52465    0.55582    0.53739    1.000
    Si3765   Si       0.52096    0.54950    0.58113    1.000
    Si3766   Si       0.58442    0.58966    0.56144    1.000
    Si3767   Si       0.61047    0.54529    0.49644    1.000
    N3768    N        0.61493    0.56595    0.54023    1.000
    N3769    N        0.68548    0.55276    0.54832    1.000
    Si3770   Si       0.65549    0.57958    0.52688    1.000
    Si3771   Si       0.67837    0.55969    0.59181    1.000
    N3772    N        0.70930    0.54502    0.61808    1.000
    N3773    N        0.64019    0.54027    0.59353    1.000
    N3774    N        0.51840    0.54511    0.63191    1.000
    Si3775   Si       0.57103    0.56706    0.70758    1.000
    Si3776   Si       0.56266    0.55845    0.63245    1.000
    N3777    N        0.56848    0.58410    0.66739    1.000
    Si3778   Si       0.49806    0.56401    0.66628    1.000
    Si3779   Si       0.50389    0.54439    0.73457    1.000
    N3780    N        0.60540    0.53902    0.70785    1.000
    Si3781   Si       0.73943    0.56624    0.69748    1.000
    Si3782   Si       0.64483    0.55285    0.69704    1.000
    Si3783   Si       0.67716    0.59063    0.64624    1.000
    N3784    N        0.70434    0.58431    0.68041    1.000
    N3785    N        0.64494    0.56056    0.65491    1.000
    N3786    N        0.65465    0.58659    0.72222    1.000
    Si3787   Si       0.59485    0.56169    0.80660    1.000
    Si3788   Si       0.51295    0.55884    0.85977    1.000
    Si3789   Si       0.51535    0.59077    0.79551    1.000
    N3790    N        0.50448    0.58269    0.75554    1.000
    N3791    N        0.56137    0.58578    0.79216    1.000
    N3792    N        0.49565    0.55950    0.81887    1.000
    N3793    N        0.61101    0.58457    0.84142    1.000
    N3794    N        0.55452    0.55762    0.86626    1.000
    N3795    N        0.62668    0.56115    0.77837    1.000
    N3796    N        0.67400    0.55684    0.82325    1.000
    Si3797   Si       0.62329    0.59541    0.75260    1.000
    Si3798   Si       0.65399    0.58965    0.84245    1.000
    Si3799   Si       0.71297    0.53717    0.81452    1.000
    Si3800   Si       0.57966    0.59242    0.86961    1.000
    Si3801   Si       0.49650    0.58735    0.92170    1.000
    N3802    N        0.53101    0.57260    0.94228    1.000
    N3803    N        0.58831    0.58490    0.98124    1.000
    Si3804   Si       0.61036    0.54446    0.97927    1.000
    N3805    N        0.59183    0.59121    0.91090    1.000
    N3806    N        0.50310    0.59509    0.87928    1.000
    Si3807   Si       0.62713    0.56622    0.90841    1.000
    N3808    N        0.72718    0.57039    0.87325    1.000
    N3809    N        0.70739    0.58494    0.94263    1.000
    N3810    N        0.64131    0.55591    0.94899    1.000
    Si3811   Si       0.68553    0.54804    0.94880    1.000
    N3812    N        0.66004    0.58715    0.88618    1.000
    N3813    N        0.57644    0.63381    0.03937    1.000
    Si3814   Si       0.58387    0.61242    0.07771    1.000
    N3815    N        0.54832    0.62409    0.09744    1.000
    Si3816   Si       0.60238    0.61111    0.01347    1.000
    Si3817   Si       0.50077    0.61364    0.09356    1.000
    N3818    N        0.49805    0.60486    0.00231    1.000
    N3819    N        0.61085    0.63549    0.10500    1.000
    Si3820   Si       0.66183    0.61590    0.03145    1.000
    N3821    N        0.67859    0.64243    0.06360    1.000
    Si3822   Si       0.70873    0.60892    0.07305    1.000
    N3823    N        0.63707    0.63723    0.00267    1.000
    N3824    N        0.70548    0.59583    0.11466    1.000
    Si3825   Si       0.58893    0.63822    0.14471    1.000
    N3826    N        0.57978    0.62534    0.22221    1.000
    N3827    N        0.49638    0.60906    0.13694    1.000
    Si3828   Si       0.54095    0.61775    0.24183    1.000
    N3829    N        0.57856    0.59512    0.15578    1.000
    Si3830   Si       0.71411    0.59764    0.21146    1.000
    Si3831   Si       0.65332    0.63322    0.15632    1.000
    N3832    N        0.68683    0.62572    0.18357    1.000
    Si3833   Si       0.68581    0.65005    0.22734    1.000
    N3834    N        0.71863    0.62465    0.24509    1.000
    N3835    N        0.61899    0.64918    0.17628    1.000
    Si3836   Si       0.71826    0.61957    0.14964    1.000
    N3837    N        0.64752    0.64059    0.24258    1.000
    N3838    N        0.52421    0.64051    0.31984    1.000
    N3839    N        0.61025    0.61463    0.30280    1.000
    Si3840   Si       0.53699    0.64927    0.36040    1.000
    N3841    N        0.51307    0.64955    0.24978    1.000
    Si3842   Si       0.59787    0.65615    0.31570    1.000
    N3843    N        0.54777    0.59594    0.27681    1.000
    Si3844   Si       0.66826    0.64832    0.33380    1.000
    N3845    N        0.68195    0.61904    0.30449    1.000
    Si3846   Si       0.64520    0.61421    0.27937    1.000
    Si3847   Si       0.72056    0.60954    0.28712    1.000
    Si3848   Si       0.73603    0.64182    0.35502    1.000
    N3849    N        0.54526    0.62285    0.39484    1.000
    N3850    N        0.58209    0.63250    0.46000    1.000
    Si3851   Si       0.54420    0.63535    0.43747    1.000
    Si3852   Si       0.56539    0.60568    0.48975    1.000
    N3853    N        0.52669    0.60246    0.46267    1.000
    N3854    N        0.65759    0.63368    0.44643    1.000
    N3855    N        0.70538    0.60342    0.48745    1.000
    N3856    N        0.72075    0.60372    0.37279    1.000
    N3857    N        0.65665    0.62893    0.37230    1.000
    Si3858   Si       0.65746    0.65360    0.40823    1.000
    Si3859   Si       0.61816    0.65643    0.45739    1.000
    N3860    N        0.60173    0.61918    0.58837    1.000
    N3861    N        0.56964    0.61644    0.53117    1.000
    Si3862   Si       0.58006    0.64682    0.61500    1.000
    N3863    N        0.52317    0.65108    0.56788    1.000
    Si3864   Si       0.51011    0.65337    0.60858    1.000
    Si3865   Si       0.55662    0.65587    0.54043    1.000
    Si3866   Si       0.69779    0.62831    0.52248    1.000
    Si3867   Si       0.71428    0.62523    0.59438    1.000
    N3868    N        0.65926    0.62121    0.53960    1.000
    N3869    N        0.72557    0.61698    0.55374    1.000
    Si3870   Si       0.64478    0.62906    0.58136    1.000
    N3871    N        0.67558    0.60315    0.60239    1.000
    N3872    N        0.54200    0.63370    0.63187    1.000
    Si3873   Si       0.54347    0.62014    0.67181    1.000
    N3874    N        0.50973    0.59966    0.68890    1.000
    N3875    N        0.58301    0.59889    0.73463    1.000
    N3876    N        0.60068    0.65648    0.65309    1.000
    Si3877   Si       0.67965    0.61589    0.70213    1.000
    N3878    N        0.66629    0.63014    0.66421    1.000
    N3879    N        0.70442    0.64229    0.72573    1.000
    N3880    N        0.50878    0.62735    0.81827    1.000
    Si3881   Si       0.51713    0.63273    0.86310    1.000
    Si3882   Si       0.57481    0.62391    0.77025    1.000
    N3883    N        0.56085    0.63176    0.86401    1.000
    N3884    N        0.54827    0.65568    0.76589    1.000
    N3885    N        0.73591    0.62606    0.83159    1.000
    N3886    N        0.61868    0.62976    0.77763    1.000
    N3887    N        0.66767    0.63069    0.83020    1.000
    Si3888   Si       0.70386    0.64650    0.85095    1.000
    Si3889   Si       0.56637    0.59905    0.94716    1.000
    N3890    N        0.54845    0.63495    0.96135    1.000
    Si3891   Si       0.50710    0.63671    0.97521    1.000
    N3892    N        0.70447    0.63634    0.89185    1.000
    Si3893   Si       0.70114    0.59315    0.90009    1.000
    N3894    N        0.56621    0.69200    0.08010    1.000
    Si3895   Si       0.58515    0.67777    0.04286    1.000
    N3896    N        0.56020    0.68896    0.00771    1.000
    Si3897   Si       0.52030    0.70584    0.00999    1.000
    Si3898   Si       0.53954    0.66888    0.10564    1.000
    N3899    N        0.50029    0.65993    0.09042    1.000
    N3900    N        0.62712    0.68104    0.05423    1.000
    Si3901   Si       0.70005    0.68180    0.05228    1.000
    N3902    N        0.71448    0.70116    0.08844    1.000
    N3903    N        0.72829    0.66355    0.02425    1.000
    Si3904   Si       0.64448    0.65797    0.08837    1.000
    N3905    N        0.50229    0.67346    0.18350    1.000
    Si3906   Si       0.53355    0.69771    0.16408    1.000
    N3907    N        0.55650    0.66605    0.14695    1.000
    N3908    N        0.52539    0.71511    0.12163    1.000
    Si3909   Si       0.61213    0.65421    0.21974    1.000
    N3910    N        0.61281    0.69703    0.22983    1.000
    Si3911   Si       0.73413    0.69474    0.12467    1.000
    N3912    N        0.66185    0.66803    0.12658    1.000
    N3913    N        0.68304    0.69316    0.22022    1.000
    Si3914   Si       0.66700    0.71000    0.13998    1.000
    N3915    N        0.57354    0.67746    0.28704    1.000
    Si3916   Si       0.52743    0.66923    0.28770    1.000
    N3917    N        0.50762    0.70687    0.29741    1.000
    Si3918   Si       0.59284    0.70903    0.26651    1.000
    N3919    N        0.57886    0.66292    0.35460    1.000
    N3920    N        0.63827    0.67592    0.31630    1.000
    N3921    N        0.70470    0.67139    0.34319    1.000
    Si3922   Si       0.71577    0.71260    0.33660    1.000
    Si3923   Si       0.64061    0.71770    0.32506    1.000
    N3924    N        0.50419    0.67615    0.37427    1.000
    Si3925   Si       0.53404    0.69850    0.47748    1.000
    Si3926   Si       0.52657    0.69897    0.40452    1.000
    N3927    N        0.52870    0.67527    0.44047    1.000
    Si3928   Si       0.59768    0.68940    0.38296    1.000
    N3929    N        0.56770    0.71217    0.40112    1.000
    N3930    N        0.61895    0.67135    0.41594    1.000
    N3931    N        0.68025    0.69294    0.41028    1.000
    Si3932   Si       0.72405    0.69914    0.40659    1.000
    N3933    N        0.63026    0.68348    0.48889    1.000
    N3934    N        0.56976    0.68649    0.60093    1.000
    N3935    N        0.58474    0.69057    0.53778    1.000
    N3936    N        0.53032    0.66827    0.50785    1.000
    Si3937   Si       0.59765    0.71045    0.50225    1.000
    Si3938   Si       0.49629    0.65823    0.53530    1.000
    N3939    N        0.70310    0.67106    0.51613    1.000
    Si3940   Si       0.67520    0.69388    0.58517    1.000
    N3941    N        0.70898    0.66749    0.59736    1.000
    Si3942   Si       0.66716    0.69551    0.50804    1.000
    N3943    N        0.64553    0.66725    0.60280    1.000
    N3944    N        0.65764    0.70785    0.54861    1.000
    N3945    N        0.50236    0.69357    0.62476    1.000
    Si3946   Si       0.52453    0.67332    0.73174    1.000
    Si3947   Si       0.58029    0.68138    0.68332    1.000
    N3948    N        0.54557    0.65868    0.69291    1.000
    Si3949   Si       0.54201    0.71091    0.62543    1.000
    N3950    N        0.73666    0.71534    0.64281    1.000
    N3951    N        0.61172    0.69243    0.71061    1.000
    N3952    N        0.66251    0.69996    0.66185    1.000
    Si3953   Si       0.64444    0.66428    0.64703    1.000
    N3954    N        0.73468    0.70679    0.72662    1.000
    N3955    N        0.54957    0.68869    0.82511    1.000
    Si3956   Si       0.57975    0.66817    0.84914    1.000
    Si3957   Si       0.52249    0.66485    0.80059    1.000
    N3958    N        0.61738    0.67949    0.82761    1.000
    N3959    N        0.66798    0.68175    0.77688    1.000
    N3960    N        0.70870    0.69197    0.84263    1.000
    Si3961   Si       0.72461    0.70783    0.80561    1.000
    N3962    N        0.73474    0.67239    0.78359    1.000
    Si3963   Si       0.70545    0.67809    0.75067    1.000
    Si3964   Si       0.64440    0.65674    0.80314    1.000
    N3965    N        0.49687    0.67700    0.99016    1.000
    N3966    N        0.50512    0.67103    0.87941    1.000
    N3967    N        0.57823    0.69279    0.88410    1.000
    Si3968   Si       0.56325    0.67570    0.96533    1.000
    Si3969   Si       0.53783    0.70003    0.89518    1.000
    N3970    N        0.54304    0.70448    0.93827    1.000
    N3971    N        0.60388    0.67383    0.94927    1.000
    Si3972   Si       0.61083    0.69367    0.91142    1.000
    Si3973   Si       0.64057    0.66985    0.97415    1.000
    N3974    N        0.70762    0.70487    0.90959    1.000
    Si3975   Si       0.68609    0.66637    0.91630    1.000
    N3976    N        0.64745    0.67443    0.90173    1.000
    Si3977   Si       0.71894    0.66832    0.98133    1.000
    N3978    N        0.71844    0.71078    0.97851    1.000
    N3979    N        0.64476    0.71040    0.98595    1.000
    N3980    N        0.68150    0.66065    0.95820    1.000
    Si3981   Si       0.55979    0.73105    0.09918    1.000
    N3982    N        0.54942    0.76149    0.07052    1.000
    Si3983   Si       0.50686    0.75917    0.06355    1.000
    N3984    N        0.60531    0.73992    0.02874    1.000
    N3985    N        0.50191    0.71684    0.04827    1.000
    Si3986   Si       0.58330    0.77221    0.04563    1.000
    Si3987   Si       0.69089    0.73830    0.07995    1.000
    N3988    N        0.65787    0.74108    0.10854    1.000
    Si3989   Si       0.70584    0.74061    0.00761    1.000
    Si3990   Si       0.62556    0.77084    0.11267    1.000
    N3991    N        0.68068    0.72070    0.04002    1.000
    Si3992   Si       0.63878    0.71489    0.02922    1.000
    N3993    N        0.59102    0.74722    0.12624    1.000
    N3994    N        0.55721    0.72506    0.18525    1.000
    Si3995   Si       0.59718    0.74024    0.16944    1.000
    Si3996   Si       0.53619    0.74217    0.21794    1.000
    N3997    N        0.49872    0.74574    0.24258    1.000
    Si3998   Si       0.65050    0.72056    0.21549    1.000
    N3999    N        0.65959    0.75727    0.24108    1.000
    N4000    N        0.63856    0.72143    0.17365    1.000
    N4001    N        0.70826    0.71810    0.15216    1.000
    N4002    N        0.72898    0.76580    0.20986    1.000
    Si4003   Si       0.71659    0.75764    0.16833    1.000
    Si4004   Si       0.52293    0.74281    0.28057    1.000
    N4005    N        0.55860    0.73362    0.25573    1.000
    N4006    N        0.53003    0.77500    0.30682    1.000
    Si4007   Si       0.63192    0.77346    0.27222    1.000
    N4008    N        0.61715    0.73651    0.29141    1.000
    N4009    N        0.68142    0.73423    0.32279    1.000
    N4010    N        0.62626    0.71767    0.36629    1.000
    N4011    N        0.71590    0.77462    0.27754    1.000
    Si4012   Si       0.69176    0.77574    0.31377    1.000
    N4013    N        0.50088    0.73334    0.41154    1.000
    N4014    N        0.50518    0.73012    0.48209    1.000
    Si4015   Si       0.57984    0.73901    0.43195    1.000
    N4016    N        0.56922    0.72388    0.47197    1.000
    Si4017   Si       0.51808    0.77450    0.40909    1.000
    N4018    N        0.56170    0.77567    0.41664    1.000
    Si4019   Si       0.72063    0.74069    0.47636    1.000
    Si4020   Si       0.64485    0.75494    0.47211    1.000
    N4021    N        0.66858    0.76434    0.39162    1.000
    N4022    N        0.62456    0.74642    0.43250    1.000
    N4023    N        0.68074    0.72936    0.48371    1.000
    Si4024   Si       0.65220    0.72491    0.39959    1.000
    N4025    N        0.72532    0.73305    0.37630    1.000
    N4026    N        0.55686    0.75028    0.53598    1.000
    N4027    N        0.54605    0.74317    0.59742    1.000
    N4028    N        0.60658    0.74976    0.57963    1.000
    Si4029   Si       0.52607    0.75916    0.50809    1.000
    Si4030   Si       0.57265    0.72082    0.56884    1.000
    N4031    N        0.49512    0.76716    0.53826    1.000
    Si4032   Si       0.52115    0.77137    0.57279    1.000
    N4033    N        0.61952    0.75086    0.50839    1.000
    Si4034   Si       0.63732    0.74428    0.55148    1.000
    N4035    N        0.68660    0.73223    0.60292    1.000
    Si4036   Si       0.69592    0.77130    0.58289    1.000
    N4037    N        0.72463    0.77694    0.54927    1.000
    N4038    N        0.49244    0.74732    0.66400    1.000
    Si4039   Si       0.58059    0.75846    0.66971    1.000
    Si4040   Si       0.51372    0.75018    0.70314    1.000
    N4041    N        0.55390    0.76949    0.70170    1.000
    N4042    N        0.56599    0.71669    0.66120    1.000
    N4043    N        0.51347    0.71564    0.73378    1.000
    N4044    N        0.66997    0.72755    0.72959    1.000
    N4045    N        0.69416    0.75629    0.67648    1.000
    Si4046   Si       0.69538    0.72551    0.64507    1.000
    Si4047   Si       0.70988    0.74281    0.71752    1.000
    N4048    N        0.62314    0.75592    0.68132    1.000
    Si4049   Si       0.64325    0.72094    0.69641    1.000
    N4050    N        0.58514    0.74758    0.83756    1.000
    N4051    N        0.52025    0.74490    0.80299    1.000
    Si4052   Si       0.54529    0.73166    0.83492    1.000
    Si4053   Si       0.49569    0.72326    0.77356    1.000
    Si4054   Si       0.62115    0.72352    0.83022    1.000
    N4055    N        0.62782    0.74102    0.78844    1.000
    N4056    N        0.70189    0.74074    0.78896    1.000
    N4057    N        0.65532    0.73523    0.86003    1.000
    Si4058   Si       0.66285    0.72577    0.77103    1.000
    N4059    N        0.72129    0.75906    0.86806    1.000
    N4060    N        0.52509    0.73545    0.87465    1.000
    Si4061   Si       0.52470    0.74259    0.94915    1.000
    N4062    N        0.52247    0.74546    0.99158    1.000
    Si4063   Si       0.59614    0.77117    0.92998    1.000
    Si4064   Si       0.69642    0.72360    0.87118    1.000
    Si4065   Si       0.64599    0.76454    0.89017    1.000
    Si4066   Si       0.65013    0.74549    0.95619    1.000
    N4067    N        0.67846    0.76533    0.98586    1.000
    N4068    N        0.67361    0.76770    0.92405    1.000
    N4069    N        0.62226    0.73376    0.92121    1.000
    Si4070   Si       0.73329    0.72356    0.94090    1.000
    N4071    N        0.56317    0.79973    0.01718    1.000
    Si4072   Si       0.52123    0.78999    0.00563    1.000
    N4073    N        0.48902    0.78889    0.03785    1.000
    N4074    N        0.55909    0.82372    0.12248    1.000
    N4075    N        0.61382    0.78528    0.07322    1.000
    N4076    N        0.63183    0.82338    0.01475    1.000
    Si4077   Si       0.63188    0.82017    0.05813    1.000
    Si4078   Si       0.73504    0.79616    0.11480    1.000
    N4079    N        0.71500    0.77568    0.08230    1.000
    N4080    N        0.60966    0.77902    0.18395    1.000
    N4081    N        0.54405    0.78507    0.20974    1.000
    Si4082   Si       0.51804    0.81862    0.21420    1.000
    Si4083   Si       0.58559    0.79947    0.21434    1.000
    N4084    N        0.63322    0.81288    0.12889    1.000
    N4085    N        0.67961    0.78128    0.16907    1.000
    N4086    N        0.69496    0.82319    0.23377    1.000
    Si4087   Si       0.64267    0.80369    0.17165    1.000
    Si4088   Si       0.69745    0.77826    0.23769    1.000
    Si4089   Si       0.52706    0.80445    0.33740    1.000
    N4090    N        0.56118    0.82353    0.35981    1.000
    N4091    N        0.60354    0.79743    0.25235    1.000
    N4092    N        0.71392    0.79585    0.34618    1.000
    N4093    N        0.65442    0.79661    0.30290    1.000
    N4094    N        0.50276    0.78955    0.37205    1.000
    N4095    N        0.50206    0.79847    0.44225    1.000
    Si4096   Si       0.57221    0.81536    0.39999    1.000
    Si4097   Si       0.53282    0.81912    0.46511    1.000
    N4098    N        0.55271    0.79210    0.49037    1.000
    Si4099   Si       0.70063    0.80925    0.45325    1.000
    N4100    N        0.72161    0.80029    0.41581    1.000
    Si4101   Si       0.71075    0.77347    0.38390    1.000
    N4102    N        0.66033    0.79361    0.45610    1.000
    N4103    N        0.61705    0.81837    0.40169    1.000
    Si4104   Si       0.64028    0.78663    0.41718    1.000
    N4105    N        0.72364    0.78582    0.48210    1.000
    N4106    N        0.55285    0.80386    0.57590    1.000
    Si4107   Si       0.58329    0.78255    0.51863    1.000
    N4108    N        0.60763    0.81786    0.53303    1.000
    N4109    N        0.49517    0.78637    0.60357    1.000
    Si4110   Si       0.57843    0.77644    0.59903    1.000
    N4111    N        0.70378    0.79898    0.61317    1.000
    Si4112   Si       0.71990    0.80793    0.52044    1.000
    Si4113   Si       0.64887    0.81879    0.54804    1.000
    N4114    N        0.67991    0.82654    0.51937    1.000
    N4115    N        0.66019    0.77823    0.56071    1.000
    N4116    N        0.50453    0.81799    0.66359    1.000
    N4117    N        0.58747    0.78992    0.63840    1.000
    Si4118   Si       0.56412    0.79959    0.73308    1.000
    Si4119   Si       0.50311    0.82443    0.70636    1.000
    Si4120   Si       0.60935    0.82510    0.65156    1.000
    N4121    N        0.49517    0.78416    0.72040    1.000
    N4122    N        0.60589    0.79187    0.74360    1.000
    N4123    N        0.71973    0.81777    0.67413    1.000
    Si4124   Si       0.63009    0.82145    0.72316    1.000
    N4125    N        0.65271    0.81649    0.65073    1.000
    Si4126   Si       0.68068    0.79870    0.67646    1.000
    N4127    N        0.66938    0.80749    0.71750    1.000
    N4128    N        0.73026    0.77498    0.73469    1.000
    N4129    N        0.54201    0.79707    0.84341    1.000
    Si4130   Si       0.58553    0.79047    0.85180    1.000
    Si4131   Si       0.52378    0.78825    0.80352    1.000
    N4132    N        0.55641    0.78851    0.77500    1.000
    N4133    N        0.60939    0.80455    0.81753    1.000
    Si4134   Si       0.51407    0.81764    0.86902    1.000
    Si4135   Si       0.59977    0.77625    0.78438    1.000
    N4136    N        0.68786    0.80739    0.78720    1.000
    Si4137   Si       0.67745    0.81933    0.82786    1.000
    Si4138   Si       0.72261    0.78088    0.77908    1.000
    N4139    N        0.66378    0.80119    0.86659    1.000
    N4140    N        0.71673    0.82886    0.84543    1.000
    N4141    N        0.51691    0.82009    0.97366    1.000
    Si4142   Si       0.54793    0.81846    0.94096    1.000
    N4143    N        0.60788    0.79078    0.89235    1.000
    N4144    N        0.55258    0.77448    0.93593    1.000
    Si4145   Si       0.70205    0.79191    0.94823    1.000
    N4146    N        0.72024    0.81656    0.91494    1.000
    Si4147   Si       0.65104    0.79911    0.98582    1.000
    Si4148   Si       0.70828    0.80009    0.87602    1.000
    N4149    N        0.62095    0.77753    0.96389    1.000
    Si4150   Si       0.63103    0.82843    0.88512    1.000
    N4151    N        0.68369    0.82466    0.97214    1.000
    N4152    N        0.51462    0.88007    0.01815    1.000
    N4153    N        0.58354    0.87336    0.01336    1.000
    N4154    N        0.60467    0.85014    0.07411    1.000
    Si4155   Si       0.59853    0.88613    0.05159    1.000
    Si4156   Si       0.59802    0.84001    0.11666    1.000
    Si4157   Si       0.58871    0.83073    0.00028    1.000
    N4158    N        0.69309    0.87013    0.02277    1.000
    Si4159   Si       0.66678    0.87575    0.05741    1.000
    Si4160   Si       0.73388    0.86286    0.03059    1.000
    N4161    N        0.66845    0.83574    0.07546    1.000
    Si4162   Si       0.67286    0.83638    0.11845    1.000
    N4163    N        0.52113    0.84787    0.17945    1.000
    N4164    N        0.59637    0.87591    0.14297    1.000
    Si4165   Si       0.54720    0.87584    0.21384    1.000
    Si4166   Si       0.53066    0.84918    0.13715    1.000
    N4167    N        0.58010    0.84230    0.21304    1.000
    N4168    N        0.53037    0.89001    0.12413    1.000
    N4169    N        0.48655    0.84167    0.12843    1.000
    N4170    N        0.71284    0.83123    0.12998    1.000
    Si4171   Si       0.66408    0.85243    0.22908    1.000
    Si4172   Si       0.73431    0.86400    0.14960    1.000
    N4173    N        0.66209    0.87551    0.13527    1.000
    Si4174   Si       0.63114    0.87703    0.16719    1.000
    Si4175   Si       0.72777    0.88925    0.22423    1.000
    N4176    N        0.64426    0.84180    0.19192    1.000
    N4177    N        0.68522    0.89091    0.22020    1.000
    Si4178   Si       0.53045    0.85886    0.28496    1.000
    Si4179   Si       0.58067    0.85201    0.33377    1.000
    N4180    N        0.57200    0.84666    0.29277    1.000
    Si4181   Si       0.59250    0.85162    0.25449    1.000
    N4182    N        0.50825    0.83828    0.31602    1.000
    N4183    N        0.52627    0.85009    0.24275    1.000
    N4184    N        0.62549    0.85385    0.34191    1.000
    N4185    N        0.68686    0.85989    0.31307    1.000
    N4186    N        0.63754    0.85401    0.26527    1.000
    Si4187   Si       0.64840    0.84061    0.30603    1.000
    Si4188   Si       0.71438    0.83842    0.33751    1.000
    N4189    N        0.59410    0.88646    0.40327    1.000
    N4190    N        0.58146    0.86950    0.48583    1.000
    Si4191   Si       0.57414    0.87756    0.44194    1.000
    N4192    N        0.51449    0.84983    0.48970    1.000
    N4193    N        0.55655    0.83910    0.43208    1.000
    Si4194   Si       0.53702    0.88555    0.48992    1.000
    Si4195   Si       0.69739    0.88739    0.38656    1.000
    Si4196   Si       0.73487    0.88032    0.45072    1.000
    Si4197   Si       0.62636    0.85985    0.38756    1.000
    N4198    N        0.72423    0.85609    0.37629    1.000
    N4199    N        0.70512    0.85076    0.46235    1.000
    N4200    N        0.66169    0.87354    0.40728    1.000
    N4201    N        0.56393    0.87238    0.55418    1.000
    Si4202   Si       0.59546    0.86044    0.52571    1.000
    Si4203   Si       0.53746    0.84394    0.57509    1.000
    N4204    N        0.53505    0.86400    0.61469    1.000
    N4205    N        0.49831    0.83772    0.55484    1.000
    Si4206   Si       0.66621    0.88297    0.56183    1.000
    N4207    N        0.66178    0.84502    0.58055    1.000
    N4208    N        0.70070    0.88580    0.53582    1.000
    N4209    N        0.63176    0.88218    0.53334    1.000
    Si4210   Si       0.68157    0.86427    0.49864    1.000
    Si4211   Si       0.67638    0.83333    0.61979    1.000
    N4212    N        0.60046    0.83505    0.69344    1.000
    N4213    N        0.60335    0.86248    0.62911    1.000
    Si4214   Si       0.50257    0.85508    0.63918    1.000
    Si4215   Si       0.56720    0.88725    0.63268    1.000
    Si4216   Si       0.57100    0.86547    0.70699    1.000
    N4217    N        0.49538    0.88359    0.67043    1.000
    N4218    N        0.54216    0.83745    0.72346    1.000
    N4219    N        0.71348    0.85929    0.74681    1.000
    Si4220   Si       0.73456    0.85804    0.66012    1.000
    N4221    N        0.69894    0.86701    0.63735    1.000
    N4222    N        0.59260    0.87739    0.80211    1.000
    N4223    N        0.59615    0.84655    0.86346    1.000
    Si4224   Si       0.49887    0.88897    0.86083    1.000
    N4225    N        0.54045    0.88619    0.85654    1.000
    Si4226   Si       0.61182    0.84735    0.82352    1.000
    Si4227   Si       0.61566    0.88450    0.76522    1.000
    N4228    N        0.65466    0.85490    0.82421    1.000
    Si4229   Si       0.72003    0.87201    0.84816    1.000
    N4230    N        0.64145    0.85416    0.75071    1.000
    Si4231   Si       0.67970    0.83327    0.75214    1.000
    N4232    N        0.53540    0.83364    0.90361    1.000
    Si4233   Si       0.56170    0.86517    0.88622    1.000
    Si4234   Si       0.50305    0.86107    0.97960    1.000
    Si4235   Si       0.60945    0.86855    0.94423    1.000
    N4236    N        0.58520    0.83619    0.95714    1.000
    N4237    N        0.58441    0.88746    0.91484    1.000
    N4238    N        0.52684    0.89191    0.95939    1.000
    N4239    N        0.63766    0.88461    0.97356    1.000
    N4240    N        0.69409    0.88809    0.87998    1.000
    N4241    N        0.64253    0.85371    0.91629    1.000
    N4242    N        0.70060    0.88742    0.95549    1.000
    Si4243   Si       0.67549    0.86512    0.98478    1.000
    Si4244   Si       0.67558    0.88178    0.91919    1.000
    Si4245   Si       0.53678    0.92744    0.09500    1.000
    N4246    N        0.56818    0.91033    0.07026    1.000
    N4247    N        0.49475    0.91343    0.07979    1.000
    N4248    N        0.53867    0.94376    0.00509    1.000
    N4249    N        0.63888    0.90428    0.03896    1.000
    N4250    N        0.72307    0.93212    0.03708    1.000
    Si4251   Si       0.67994    0.92964    0.03828    1.000
    N4252    N        0.68739    0.90802    0.08084    1.000
    Si4253   Si       0.73192    0.91490    0.07718    1.000
    Si4254   Si       0.62350    0.91978    0.99521    1.000
    N4255    N        0.56485    0.94359    0.12653    1.000
    Si4256   Si       0.53536    0.94351    0.20632    1.000
    N4257    N        0.55368    0.91030    0.18593    1.000
    Si4258   Si       0.56581    0.90419    0.14534    1.000
    N4259    N        0.49835    0.91766    0.21677    1.000
    N4260    N        0.63611    0.91644    0.18458    1.000
    N4261    N        0.73925    0.93152    0.23241    1.000
    Si4262   Si       0.68096    0.91236    0.12330    1.000
    Si4263   Si       0.66298    0.92576    0.21673    1.000
    N4264    N        0.72259    0.90638    0.13936    1.000
    Si4265   Si       0.54770    0.92034    0.31296    1.000
    N4266    N        0.51916    0.89953    0.28847    1.000
    Si4267   Si       0.59420    0.93321    0.25410    1.000
    N4268    N        0.58115    0.93998    0.29395    1.000
    N4269    N        0.56470    0.89156    0.33941    1.000
    Si4270   Si       0.49218    0.92110    0.25926    1.000
    N4271    N        0.59336    0.94852    0.36324    1.000
    N4272    N        0.57854    0.89354    0.24561    1.000
    Si4273   Si       0.73300    0.93542    0.27622    1.000
    N4274    N        0.69186    0.92716    0.28317    1.000
    N4275    N        0.68348    0.91673    0.35697    1.000
    Si4276   Si       0.69752    0.90249    0.31854    1.000
    N4277    N        0.63544    0.94258    0.24815    1.000
    Si4278   Si       0.57417    0.91389    0.37727    1.000
    N4279    N        0.54038    0.90322    0.45034    1.000
    Si4280   Si       0.51612    0.92817    0.42513    1.000
    N4281    N        0.53678    0.93341    0.38910    1.000
    N4282    N        0.60777    0.93958    0.48735    1.000
    N4283    N        0.71351    0.90969    0.42449    1.000
    N4284    N        0.64447    0.93603    0.42149    1.000
    N4285    N        0.66399    0.90081    0.47950    1.000
    Si4286   Si       0.66800    0.90315    0.43771    1.000
    N4287    N        0.51788    0.93383    0.58163    1.000
    Si4288   Si       0.55215    0.91638    0.55753    1.000
    N4289    N        0.52446    0.91324    0.52067    1.000
    N4290    N        0.58674    0.91979    0.60768    1.000
    N4291    N        0.57863    0.95070    0.55216    1.000
    N4292    N        0.65814    0.91073    0.59582    1.000
    Si4293   Si       0.63829    0.91807    0.50881    1.000
    N4294    N        0.73047    0.91251    0.60098    1.000
    Si4295   Si       0.69361    0.90607    0.62221    1.000
    Si4296   Si       0.59775    0.92286    0.69441    1.000
    N4297    N        0.52163    0.91930    0.72376    1.000
    Si4298   Si       0.52218    0.91396    0.68053    1.000
    N4299    N        0.52129    0.94722    0.65235    1.000
    N4300    N        0.58646    0.89560    0.73546    1.000
    N4301    N        0.56537    0.89426    0.67648    1.000
    N4302    N        0.62930    0.94797    0.72017    1.000
    Si4303   Si       0.66229    0.94068    0.68258    1.000
    N4304    N        0.68556    0.92055    0.71335    1.000
    N4305    N        0.63187    0.91397    0.66520    1.000
    Si4306   Si       0.62535    0.89988    0.62244    1.000
    Si4307   Si       0.72170    0.89720    0.72294    1.000
    N4308    N        0.68737    0.94106    0.64714    1.000
    N4309    N        0.53314    0.90929    0.79126    1.000
    N4310    N        0.58767    0.93935    0.83425    1.000
    Si4311   Si       0.56390    0.90242    0.82263    1.000
    Si4312   Si       0.49592    0.92921    0.80003    1.000
    Si4313   Si       0.55281    0.91895    0.75360    1.000
    N4314    N        0.64530    0.91469    0.78018    1.000
    N4315    N        0.65973    0.92582    0.83917    1.000
    Si4316   Si       0.62608    0.94138    0.81270    1.000
    Si4317   Si       0.67069    0.89470    0.81129    1.000
    N4318    N        0.73609    0.92469    0.75190    1.000
    N4319    N        0.71348    0.89292    0.80980    1.000
    Si4320   Si       0.66335    0.93691    0.74725    1.000
    Si4321   Si       0.50387    0.91836    0.93364    1.000
    N4322    N        0.58747    0.92185    0.96827    1.000
    Si4323   Si       0.57453    0.92756    0.92652    1.000
    N4324    N        0.53447    0.94061    0.91633    1.000
    Si4325   Si       0.55364    0.90213    0.99363    1.000
    N4326    N        0.66826    0.94009    0.99526    1.000
    N4327    N        0.73619    0.93625    0.96898    1.000
    N4328    N        0.66473    0.92627    0.92108    1.000
    Si4329   Si       0.68071    0.93269    0.87615    1.000
    Si4330   Si       0.69201    0.93471    0.95786    1.000
    N4331    N        0.53048    0.96698    0.07713    1.000
    N4332    N        0.59363    0.99844    0.09794    1.000
    Si4333   Si       0.57162    0.97227    0.00418    1.000
    N4334    N        0.61005    0.96112    0.01588    1.000
    Si4335   Si       0.55638    0.00153    0.07274    1.000
    N4336    N        0.66729    0.96853    0.05736    1.000
    Si4337   Si       0.67711    0.98184    0.09950    1.000
    Si4338   Si       0.64910    0.97700    0.01778    1.000
    N4339    N        0.71687    0.99996    0.10524    1.000
    Si4340   Si       0.58976    0.99654    0.20870    1.000
    Si4341   Si       0.58158    0.98168    0.13548    1.000
    N4342    N        0.57310    0.96050    0.22573    1.000
    N4343    N        0.51137    0.97979    0.19749    1.000
    N4344    N        0.60844    0.98364    0.16932    1.000
    Si4345   Si       0.64152    0.95606    0.16695    1.000
    N4346    N        0.67361    0.96549    0.19747    1.000
    Si4347   Si       0.66794    0.00246    0.22025    1.000
    N4348    N        0.66365    0.95092    0.12937    1.000
    Si4349   Si       0.50809    0.98273    0.30056    1.000
    N4350    N        0.50813    0.96177    0.26275    1.000
    Si4351   Si       0.59888    0.96651    0.32358    1.000
    N4352    N        0.52843    0.95675    0.32839    1.000
    N4353    N        0.64143    0.97138    0.31403    1.000
    N4354    N        0.68312    0.99232    0.26099    1.000
    Si4355   Si       0.66163    0.95809    0.27932    1.000
    Si4356   Si       0.72464    0.00540    0.26491    1.000
    Si4357   Si       0.52708    0.97091    0.36873    1.000
    N4358    N        0.58744    0.97990    0.43034    1.000
    Si4359   Si       0.54967    0.99166    0.45034    1.000
    N4360    N        0.51217    0.96926    0.43956    1.000
    Si4361   Si       0.59593    0.98470    0.38552    1.000
    N4362    N        0.55318    0.00448    0.37958    1.000
    N4363    N        0.55057    0.97937    0.49209    1.000
    N4364    N        0.73304    0.96771    0.46244    1.000
    Si4365   Si       0.62310    0.95996    0.44989    1.000
    N4366    N        0.64010    0.98864    0.37672    1.000
    N4367    N        0.64994    0.98995    0.46929    1.000
    N4368    N        0.69688    0.96973    0.39626    1.000
    Si4369   Si       0.72827    0.95233    0.42083    1.000
    Si4370   Si       0.66111    0.94829    0.38199    1.000
    Si4371   Si       0.58649    0.96626    0.51264    1.000
    Si4372   Si       0.51471    0.98865    0.51628    1.000
    Si4373   Si       0.58867    0.96155    0.59184    1.000
    N4374    N        0.56460    0.98851    0.61710    1.000
    N4375    N        0.49868    0.99917    0.60978    1.000
    N4376    N        0.60968    0.00298    0.51900    1.000
    Si4377   Si       0.50143    0.95606    0.61506    1.000
    N4378    N        0.53262    0.00956    0.55299    1.000
    Si4379   Si       0.71427    0.99513    0.55483    1.000
    Si4380   Si       0.65064    0.98824    0.51399    1.000
    N4381    N        0.69249    0.97325    0.58646    1.000
    N4382    N        0.62889    0.97766    0.60306    1.000
    N4383    N        0.73060    0.95530    0.53754    1.000
    Si4384   Si       0.65575    0.95299    0.57780    1.000
    N4385    N        0.65160    0.94937    0.53517    1.000
    N4386    N        0.58107    0.96165    0.68316    1.000
    Si4387   Si       0.55220    0.98040    0.65720    1.000
    N4388    N        0.50125    0.98387    0.73637    1.000
    Si4389   Si       0.61338    0.98367    0.70256    1.000
    Si4390   Si       0.64177    0.00398    0.63591    1.000
    N4391    N        0.71566    0.98992    0.70423    1.000
    Si4392   Si       0.72382    0.96747    0.74166    1.000
    N4393    N        0.64744    0.98834    0.67665    1.000
    Si4394   Si       0.70694    0.97401    0.62721    1.000
    N4395    N        0.51008    0.96919    0.80367    1.000
    Si4396   Si       0.52924    0.98547    0.76930    1.000
    Si4397   Si       0.58896    0.99263    0.77041    1.000
    Si4398   Si       0.58314    0.97120    0.86357    1.000
    Si4399   Si       0.50804    0.99277    0.83959    1.000
    N4400    N        0.54256    0.98598    0.86335    1.000
    N4401    N        0.56445    0.95940    0.76123    1.000
    N4402    N        0.60912    0.00676    0.85889    1.000
    Si4403   Si       0.66333    0.99944    0.78573    1.000
    N4404    N        0.62381    0.98156    0.79455    1.000
    N4405    N        0.68489    0.97276    0.76139    1.000
    Si4406   Si       0.65410    0.00622    0.85699    1.000
    Si4407   Si       0.51697    0.97442    0.89650    1.000
    N4408    N        0.56586    0.99297    0.96681    1.000
    N4409    N        0.50766    0.00702    0.92319    1.000
    N4410    N        0.59771    0.95307    0.90007    1.000
    N4411    N        0.49785    0.99938    0.99430    1.000
    Si4412   Si       0.49591    0.95497    0.99552    1.000
    N4413    N        0.70009    0.98097    0.94264    1.000
    Si4414   Si       0.71071    0.98591    0.89875    1.000
    N4415    N        0.66881    0.97703    0.88525    1.000
    Si4416   Si       0.63812    0.96323    0.91346    1.000
    N4417    N        0.63290    0.99108    0.94512    1.000
    N4418    N        0.72298    0.94857    0.87633    1.000
    N4419    N        0.82349    0.05237    0.07468    1.000
    Si4420   Si       0.84578    0.02004    0.05938    1.000
    N4421    N        0.76438    0.02202    0.05902    1.000
    Si4422   Si       0.77931    0.05864    0.07147    1.000
    N4423    N        0.78372    0.05147    0.00045    1.000
    Si4424   Si       0.82131    0.06853    0.11633    1.000
    N4425    N        0.82567    0.00797    0.02161    1.000
    Si4426   Si       0.77946    0.01239    0.01950    1.000
    N4427    N        0.88695    0.02985    0.04796    1.000
    Si4428   Si       0.95921    0.04767    0.01074    1.000
    N4429    N        0.90717    0.04280    0.11934    1.000
    N4430    N        0.93911    0.00768    0.00973    1.000
    N4431    N        0.98816    0.04356    0.04205    1.000
    N4432    N        0.84107    0.03153    0.13435    1.000
    N4433    N        0.82669    0.03181    0.22628    1.000
    Si4434   Si       0.79648    0.06345    0.22684    1.000
    N4435    N        0.75619    0.06961    0.21214    1.000
    Si4436   Si       0.94796    0.04534    0.24301    1.000
    Si4437   Si       0.88015    0.03265    0.15281    1.000
    Si4438   Si       0.86590    0.04999    0.22763    1.000
    N4439    N        0.98397    0.06641    0.14313    1.000
    N4440    N        0.87450    0.06088    0.18605    1.000
    N4441    N        0.95189    0.03915    0.19828    1.000
    Si4442   Si       0.78247    0.04725    0.29458    1.000
    N4443    N        0.79867    0.06159    0.33251    1.000
    N4444    N        0.86196    0.03596    0.31680    1.000
    Si4445   Si       0.90542    0.03384    0.33688    1.000
    N4446    N        0.94381    0.02896    0.36066    1.000
    N4447    N        0.90415    0.03314    0.24798    1.000
    N4448    N        0.99051    0.03625    0.25342    1.000
    N4449    N        0.87962    0.02057    0.37403    1.000
    N4450    N        0.85217    0.01291    0.43510    1.000
    N4451    N        0.77994    0.02814    0.46240    1.000
    Si4452   Si       0.82309    0.02967    0.46082    1.000
    N4453    N        0.78131    0.04606    0.39681    1.000
    Si4454   Si       0.77883    0.06363    0.43695    1.000
    Si4455   Si       0.75702    0.01133    0.39078    1.000
    N4456    N        0.84788    0.02500    0.49719    1.000
    Si4457   Si       0.86439    0.04511    0.40679    1.000
    N4458    N        0.91450    0.01214    0.46915    1.000
    N4459    N        0.95338    0.05084    0.42328    1.000
    Si4460   Si       0.95721    0.06525    0.38051    1.000
    Si4461   Si       0.92330    0.05200    0.45355    1.000
    Si4462   Si       0.76183    0.03738    0.55048    1.000
    Si4463   Si       0.82739    0.02736    0.58506    1.000
    N4464    N        0.79800    0.01340    0.55793    1.000
    N4465    N        0.84992    0.05846    0.56311    1.000
    N4466    N        0.81898    0.05205    0.62001    1.000
    Si4467   Si       0.86507    0.05448    0.52336    1.000
    N4468    N        0.96381    0.01956    0.51477    1.000
    Si4469   Si       0.94637    0.05986    0.52117    1.000
    N4470    N        0.90636    0.05480    0.53822    1.000
    Si4471   Si       0.91348    0.01885    0.61440    1.000
    N4472    N        0.90714    0.06078    0.61108    1.000
    Si4473   Si       0.81102    0.02733    0.65560    1.000
    Si4474   Si       0.83536    0.05536    0.72858    1.000
    N4475    N        0.83817    0.03630    0.69083    1.000
    N4476    N        0.76961    0.02675    0.67124    1.000
    Si4477   Si       0.75410    0.06846    0.66700    1.000
    N4478    N        0.98836    0.04433    0.69617    1.000
    N4479    N        0.90649    0.05730    0.68049    1.000
    N4480    N        0.94389    0.02436    0.74478    1.000
    Si4481   Si       0.96734    0.05807    0.73258    1.000
    N4482    N        0.95343    0.02691    0.63598    1.000
    Si4483   Si       0.87933    0.02301    0.68298    1.000
    Si4484   Si       0.82396    0.03032    0.80375    1.000
    N4485    N        0.84024    0.02710    0.76175    1.000
    N4486    N        0.85914    0.02340    0.82947    1.000
    N4487    N        0.80090    0.06557    0.81747    1.000
    Si4488   Si       0.95599    0.05337    0.86331    1.000
    Si4489   Si       0.87991    0.04163    0.86212    1.000
    N4490    N        0.95696    0.01212    0.86890    1.000
    N4491    N        0.98733    0.00798    0.80509    1.000
    Si4492   Si       0.82706    0.03611    0.90750    1.000
    N4493    N        0.83109    0.04206    0.94990    1.000
    Si4494   Si       0.74821    0.04008    0.90703    1.000
    N4495    N        0.78775    0.05248    0.89661    1.000
    Si4496   Si       0.82653    0.04128    0.99346    1.000
    N4497    N        0.84928    0.06490    0.88425    1.000
    Si4498   Si       0.97637    0.04260    0.93454    1.000
    N4499    N        0.89017    0.01150    0.89131    1.000
    N4500    N        0.98242    0.05557    0.97570    1.000
    N4501    N        0.75529    0.08932    0.05322    1.000
    Si4502   Si       0.76963    0.09104    0.01117    1.000
    N4503    N        0.79664    0.12418    0.00255    1.000
    N4504    N        0.81333    0.12330    0.08172    1.000
    N4505    N        0.85860    0.06901    0.00007    1.000
    N4506    N        0.77800    0.06872    0.11562    1.000
    Si4507   Si       0.85447    0.12568    0.07187    1.000
    Si4508   Si       0.98413    0.09397    0.11047    1.000
    Si4509   Si       0.91169    0.08092    0.09875    1.000
    Si4510   Si       0.94768    0.11061    0.04249    1.000
    N4511    N        0.95069    0.09145    0.08119    1.000
    N4512    N        0.88168    0.09330    0.06930    1.000
    N4513    N        0.92944    0.07733    0.02069    1.000
    Si4514   Si       0.88794    0.07015    0.03182    1.000
    Si4515   Si       0.74217    0.07605    0.13571    1.000
    Si4516   Si       0.85162    0.09756    0.18119    1.000
    N4517    N        0.81735    0.09765    0.20524    1.000
    N4518    N        0.84087    0.10013    0.13810    1.000
    N4519    N        0.74772    0.11412    0.15810    1.000
    Si4520   Si       0.74168    0.10919    0.20173    1.000
    N4521    N        0.91002    0.10994    0.13056    1.000
    Si4522   Si       0.97304    0.07454    0.18377    1.000
    N4523    N        0.94672    0.10732    0.19010    1.000
    Si4524   Si       0.93826    0.12280    0.22850    1.000
    Si4525   Si       0.83582    0.10377    0.27667    1.000
    N4526    N        0.84661    0.10843    0.31668    1.000
    N4527    N        0.79965    0.07767    0.26819    1.000
    Si4528   Si       0.77709    0.07705    0.36682    1.000
    Si4529   Si       0.84226    0.06931    0.33759    1.000
    N4530    N        0.86900    0.08361    0.25766    1.000
    Si4531   Si       0.97335    0.10868    0.27813    1.000
    Si4532   Si       0.92730    0.11168    0.33582    1.000
    N4533    N        0.94003    0.08749    0.25937    1.000
    N4534    N        0.91237    0.07373    0.32006    1.000
    Si4535   Si       0.90245    0.07074    0.27743    1.000
    N4536    N        0.78836    0.11217    0.39082    1.000
    N4537    N        0.84792    0.07664    0.38006    1.000
    Si4538   Si       0.83071    0.11183    0.39890    1.000
    Si4539   Si       0.85720    0.09294    0.45798    1.000
    N4540    N        0.74309    0.08530    0.44163    1.000
    N4541    N        0.82180    0.06976    0.44472    1.000
    N4542    N        0.88676    0.06918    0.43581    1.000
    N4543    N        0.93740    0.07980    0.48370    1.000
    N4544    N        0.93822    0.10386    0.37636    1.000
    Si4545   Si       0.94398    0.12148    0.47193    1.000
    N4546    N        0.76410    0.07884    0.54277    1.000
    Si4547   Si       0.75469    0.11962    0.53854    1.000
    N4548    N        0.78459    0.11920    0.61085    1.000
    Si4549   Si       0.73880    0.11622    0.61308    1.000
    N4550    N        0.85805    0.09250    0.50139    1.000
    N4551    N        0.75958    0.12944    0.49654    1.000
    Si4552   Si       0.88935    0.07595    0.57316    1.000
    N4553    N        0.97359    0.08381    0.54370    1.000
    N4554    N        0.88296    0.11853    0.56127    1.000
    Si4555   Si       0.81500    0.09496    0.63119    1.000
    Si4556   Si       0.78009    0.10780    0.70614    1.000
    N4557    N        0.79402    0.09091    0.66911    1.000
    N4558    N        0.80357    0.08477    0.73623    1.000
    N4559    N        0.85442    0.11601    0.63043    1.000
    Si4560   Si       0.83882    0.11374    0.74413    1.000
    Si4561   Si       0.93407    0.06479    0.64869    1.000
    N4562    N        0.86647    0.08313    0.72926    1.000
    Si4563   Si       0.90654    0.09028    0.71085    1.000
    N4564    N        0.94298    0.09302    0.73481    1.000
    N4565    N        0.96566    0.09428    0.65887    1.000
    N4566    N        0.91304    0.12237    0.68401    1.000
    Si4567   Si       0.75889    0.07884    0.80928    1.000
    N4568    N        0.81624    0.11576    0.85890    1.000
    N4569    N        0.75373    0.09187    0.85146    1.000
    Si4570   Si       0.83127    0.10090    0.81847    1.000
    Si4571   Si       0.79249    0.07657    0.86160    1.000
    N4572    N        0.75425    0.11896    0.78933    1.000
    N4573    N        0.82088    0.12673    0.78331    1.000
    N4574    N        0.87432    0.09619    0.81965    1.000
    Si4575   Si       0.97877    0.11289    0.82494    1.000
    Si4576   Si       0.90471    0.10775    0.84643    1.000
    N4577    N        0.91506    0.07002    0.86650    1.000
    N4578    N        0.97496    0.07106    0.82908    1.000
    Si4579   Si       0.84576    0.10685    0.89270    1.000
    N4580    N        0.83664    0.11054    0.93602    1.000
    Si4581   Si       0.85885    0.08004    0.95684    1.000
    N4582    N        0.96596    0.07164    0.90397    1.000
    N4583    N        0.89686    0.07669    0.93810    1.000
    Si4584   Si       0.92185    0.09564    0.90905    1.000
    N4585    N        0.88637    0.12359    0.88474    1.000
    Si4586   Si       0.82126    0.15692    0.01806    1.000
    Si4587   Si       0.79339    0.16019    0.08852    1.000
    N4588    N        0.74917    0.16465    0.09470    1.000
    N4589    N        0.79715    0.18088    0.04880    1.000
    N4590    N        0.85937    0.14699    0.03253    1.000
    N4591    N        0.87134    0.15325    0.09992    1.000
    Si4592   Si       0.89447    0.17390    0.02869    1.000
    N4593    N        0.92872    0.14867    0.03958    1.000
    N4594    N        0.80474    0.17993    0.12338    1.000
    N4595    N        0.81335    0.16875    0.19810    1.000
    Si4596   Si       0.80511    0.13622    0.22259    1.000
    N4597    N        0.76251    0.13660    0.22818    1.000
    N4598    N        0.74696    0.18142    0.16508    1.000
    Si4599   Si       0.79037    0.18407    0.16484    1.000
    N4600    N        0.97762    0.13115    0.13118    1.000
    Si4601   Si       0.94059    0.12743    0.15325    1.000
    N4602    N        0.87262    0.13572    0.18049    1.000
    N4603    N        0.97848    0.13691    0.24401    1.000
    Si4604   Si       0.89631    0.16957    0.19387    1.000
    Si4605   Si       0.87353    0.13124    0.13696    1.000
    N4606    N        0.91684    0.16084    0.23305    1.000
    N4607    N        0.92772    0.16755    0.16150    1.000
    N4608    N        0.82410    0.14257    0.26079    1.000
    Si4609   Si       0.85813    0.14760    0.33198    1.000
    Si4610   Si       0.74283    0.16298    0.25676    1.000
    N4611    N        0.83942    0.18419    0.31410    1.000
    N4612    N        0.90157    0.14756    0.33225    1.000
    N4613    N        0.95901    0.17243    0.36401    1.000
    Si4614   Si       0.98429    0.16484    0.32227    1.000
    Si4615   Si       0.92444    0.18477    0.33974    1.000
    N4616    N        0.96319    0.12681    0.31682    1.000
    N4617    N        0.84774    0.14477    0.37414    1.000
    N4618    N        0.74569    0.15663    0.43343    1.000
    Si4619   Si       0.76149    0.14845    0.39268    1.000
    N4620    N        0.85154    0.12760    0.43444    1.000
    N4621    N        0.79483    0.18347    0.47407    1.000
    Si4622   Si       0.94572    0.14137    0.39510    1.000
    N4623    N        0.96497    0.13016    0.43490    1.000
    N4624    N        0.91094    0.16216    0.41037    1.000
    Si4625   Si       0.86893    0.15839    0.41007    1.000
    N4626    N        0.90692    0.13957    0.49263    1.000
    Si4627   Si       0.79897    0.15375    0.58815    1.000
    N4628    N        0.78641    0.14864    0.54835    1.000
    N4629    N        0.83969    0.16808    0.58733    1.000
    Si4630   Si       0.80010    0.15621    0.50827    1.000
    N4631    N        0.84443    0.15909    0.51508    1.000
    Si4632   Si       0.87120    0.14091    0.59598    1.000
    Si4633   Si       0.92889    0.17321    0.50764    1.000
    N4634    N        0.96658    0.14733    0.50092    1.000
    N4635    N        0.98469    0.13534    0.58452    1.000
    Si4636   Si       0.87339    0.12884    0.52016    1.000
    N4637    N        0.90507    0.15600    0.61946    1.000
    N4638    N        0.75678    0.14598    0.70410    1.000
    Si4639   Si       0.79266    0.17298    0.71295    1.000
    N4640    N        0.82237    0.14068    0.71257    1.000
    Si4641   Si       0.85661    0.17303    0.71615    1.000
    Si4642   Si       0.74319    0.17796    0.66994    1.000
    N4643    N        0.97861    0.14490    0.71331    1.000
    Si4644   Si       0.93920    0.18401    0.62692    1.000
    N4645    N        0.87351    0.17854    0.67755    1.000
    Si4646   Si       0.88368    0.14054    0.65663    1.000
    Si4647   Si       0.95578    0.13049    0.67849    1.000
    N4648    N        0.96781    0.16088    0.64859    1.000
    Si4649   Si       0.78448    0.15161    0.78661    1.000
    N4650    N        0.78960    0.17423    0.82362    1.000
    Si4651   Si       0.78803    0.15110    0.86024    1.000
    N4652    N        0.77005    0.17944    0.75402    1.000
    N4653    N        0.94029    0.16410    0.76871    1.000
    Si4654   Si       0.93974    0.17067    0.81394    1.000
    Si4655   Si       0.89822    0.17560    0.76704    1.000
    N4656    N        0.93901    0.13077    0.83061    1.000
    Si4657   Si       0.96289    0.13052    0.75124    1.000
    N4658    N        0.87298    0.14704    0.74645    1.000
    N4659    N        0.76401    0.13267    0.94476    1.000
    N4660    N        0.80159    0.17012    0.89945    1.000
    Si4661   Si       0.76015    0.16668    0.91603    1.000
    N4662    N        0.82801    0.17123    0.97631    1.000
    N4663    N        0.74473    0.15027    0.87964    1.000
    Si4664   Si       0.80599    0.13582    0.95916    1.000
    Si4665   Si       0.90192    0.15942    0.90501    1.000
    N4666    N        0.93503    0.13592    0.92279    1.000
    Si4667   Si       0.97215    0.15491    0.93582    1.000
    N4668    N        0.86998    0.17933    0.92452    1.000
    N4669    N        0.97268    0.16602    0.97766    1.000
    Si4670   Si       0.79244    0.22129    0.03758    1.000
    N4671    N        0.76284    0.23629    0.06873    1.000
    N4672    N        0.76365    0.22046    0.00379    1.000
    N4673    N        0.88284    0.20519    0.05634    1.000
    N4674    N        0.96338    0.21842    0.02144    1.000
    Si4675   Si       0.89122    0.19185    0.09632    1.000
    N4676    N        0.93325    0.19197    0.10098    1.000
    N4677    N        0.76232    0.23538    0.21214    1.000
    Si4678   Si       0.82647    0.21667    0.12784    1.000
    N4679    N        0.81219    0.22385    0.16985    1.000
    Si4680   Si       0.83362    0.20782    0.20598    1.000
    Si4681   Si       0.88526    0.23339    0.15982    1.000
    N4682    N        0.96515    0.20998    0.24098    1.000
    N4683    N        0.87490    0.20596    0.19247    1.000
    Si4684   Si       0.94671    0.19870    0.14118    1.000
    N4685    N        0.92887    0.23492    0.15549    1.000
    N4686    N        0.86910    0.21549    0.12565    1.000
    Si4687   Si       0.75274    0.22167    0.29838    1.000
    Si4688   Si       0.78752    0.22670    0.36607    1.000
    Si4689   Si       0.85592    0.21954    0.33554    1.000
    N4690    N        0.77288    0.18955    0.27659    1.000
    Si4691   Si       0.86291    0.24199    0.26500    1.000
    N4692    N        0.78673    0.23713    0.32298    1.000
    N4693    N        0.83093    0.22799    0.37154    1.000
    Si4694   Si       0.81726    0.18308    0.27676    1.000
    N4695    N        0.83418    0.21164    0.24811    1.000
    N4696    N        0.90014    0.22234    0.26930    1.000
    Si4697   Si       0.93081    0.19440    0.26172    1.000
    N4698    N        0.89674    0.21392    0.35337    1.000
    N4699    N        0.94832    0.18799    0.30298    1.000
    N4700    N        0.77538    0.18594    0.37525    1.000
    N4701    N        0.75387    0.23257    0.44756    1.000
    Si4702   Si       0.85008    0.23273    0.40901    1.000
    Si4703   Si       0.83283    0.20046    0.46247    1.000
    Si4704   Si       0.75398    0.19096    0.45957    1.000
    N4705    N        0.85427    0.22263    0.49125    1.000
    Si4706   Si       0.91444    0.24280    0.38054    1.000
    N4707    N        0.92610    0.20496    0.47678    1.000
    Si4708   Si       0.91111    0.19803    0.43663    1.000
    N4709    N        0.93968    0.22416    0.41398    1.000
    N4710    N        0.86539    0.19743    0.43082    1.000
    Si4711   Si       0.82597    0.21104    0.59647    1.000
    N4712    N        0.84344    0.22560    0.55726    1.000
    N4713    N        0.78515    0.19196    0.60039    1.000
    Si4714   Si       0.76035    0.22754    0.60603    1.000
    Si4715   Si       0.85975    0.19876    0.52809    1.000
    N4716    N        0.95359    0.19817    0.58832    1.000
    Si4717   Si       0.92882    0.22476    0.56518    1.000
    N4718    N        0.90387    0.19784    0.53678    1.000
    Si4719   Si       0.92314    0.24206    0.49951    1.000
    Si4720   Si       0.79832    0.23239    0.69767    1.000
    N4721    N        0.82463    0.20494    0.71998    1.000
    N4722    N        0.85148    0.22046    0.63032    1.000
    N4723    N        0.78057    0.19848    0.67807    1.000
    N4724    N        0.92328    0.21809    0.64905    1.000
    Si4725   Si       0.91080    0.24282    0.73058    1.000
    N4726    N        0.94874    0.23985    0.71243    1.000
    Si4727   Si       0.88076    0.21786    0.66144    1.000
    N4728    N        0.88684    0.21265    0.74799    1.000
    Si4729   Si       0.82308    0.20303    0.82306    1.000
    N4730    N        0.82234    0.21454    0.78095    1.000
    Si4731   Si       0.78145    0.21831    0.76393    1.000
    N4732    N        0.84803    0.18903    0.85582    1.000
    Si4733   Si       0.84616    0.23073    0.74908    1.000
    N4734    N        0.81790    0.24346    0.83493    1.000
    Si4735   Si       0.98591    0.23613    0.81554    1.000
    Si4736   Si       0.88872    0.20300    0.84734    1.000
    N4737    N        0.96492    0.20340    0.83258    1.000
    N4738    N        0.89899    0.18602    0.80958    1.000
    Si4739   Si       0.83581    0.19522    0.89742    1.000
    N4740    N        0.75216    0.20671    0.93322    1.000
    Si4741   Si       0.77130    0.23349    0.96367    1.000
    N4742    N        0.83494    0.23985    0.90159    1.000
    N4743    N        0.97429    0.19359    0.91404    1.000
    N4744    N        0.86605    0.23646    0.96074    1.000
    Si4745   Si       0.95550    0.20629    0.87525    1.000
    N4746    N        0.93844    0.23215    0.96133    1.000
    Si4747   Si       0.94568    0.19713    0.98727    1.000
    Si4748   Si       0.96751    0.23441    0.92810    1.000
    Si4749   Si       0.86636    0.19331    0.96429    1.000
    N4750    N        0.91747    0.18534    0.87379    1.000
    N4751    N        0.90351    0.18623    0.98837    1.000
    Si4752   Si       0.77488    0.26391    0.10318    1.000
    Si4753   Si       0.84832    0.27941    0.11443    1.000
    Si4754   Si       0.74890    0.27581    0.04713    1.000
    N4755    N        0.77672    0.29506    0.01859    1.000
    N4756    N        0.75633    0.29866    0.08519    1.000
    Si4757   Si       0.81356    0.27606    0.00511    1.000
    N4758    N        0.81664    0.25226    0.10650    1.000
    N4759    N        0.82944    0.24422    0.02889    1.000
    N4760    N        0.87020    0.27684    0.07681    1.000
    N4761    N        0.96494    0.27940    0.05953    1.000
    Si4762   Si       0.94725    0.25937    0.02609    1.000
    N4763    N        0.90359    0.25552    0.01912    1.000
    Si4764   Si       0.87105    0.24574    0.04724    1.000
    N4765    N        0.81090    0.28977    0.19092    1.000
    Si4766   Si       0.78391    0.25670    0.17939    1.000
    N4767    N        0.75855    0.25284    0.14154    1.000
    Si4768   Si       0.82521    0.29768    0.23357    1.000
    Si4769   Si       0.75739    0.26509    0.24404    1.000
    N4770    N        0.86381    0.27921    0.24509    1.000
    N4771    N        0.73721    0.29585    0.22090    1.000
    Si4772   Si       0.98194    0.24868    0.22983    1.000
    Si4773   Si       0.95797    0.26692    0.16012    1.000
    N4774    N        0.93332    0.29997    0.17256    1.000
    N4775    N        0.98369    0.26237    0.12470    1.000
    N4776    N        0.87145    0.27487    0.15012    1.000
    N4777    N        0.95731    0.28138    0.23960    1.000
    N4778    N        0.98729    0.24967    0.18764    1.000
    Si4779   Si       0.80970    0.26856    0.30212    1.000
    N4780    N        0.79512    0.28133    0.26158    1.000
    N4781    N        0.84938    0.25056    0.30626    1.000
    N4782    N        0.80793    0.30046    0.33259    1.000
    N4783    N        0.93850    0.27062    0.35787    1.000
    Si4784   Si       0.97927    0.27112    0.34733    1.000
    Si4785   Si       0.95966    0.29128    0.28112    1.000
    N4786    N        0.92133    0.29655    0.29767    1.000
    N4787    N        0.98567    0.26643    0.30556    1.000
    N4788    N        0.77772    0.26453    0.38861    1.000
    Si4789   Si       0.83961    0.26445    0.47651    1.000
    N4790    N        0.78623    0.29385    0.45329    1.000
    Si4791   Si       0.78280    0.25658    0.43026    1.000
    N4792    N        0.85537    0.29952    0.45586    1.000
    N4793    N        0.82262    0.24117    0.44125    1.000
    N4794    N        0.99114    0.27395    0.42198    1.000
    N4795    N        0.94159    0.26967    0.46911    1.000
    N4796    N        0.88257    0.26220    0.40151    1.000
    Si4797   Si       0.96602    0.24637    0.44094    1.000
    N4798    N        0.82475    0.28122    0.51427    1.000
    N4799    N        0.77942    0.29271    0.56117    1.000
    N4800    N        0.80170    0.24951    0.60801    1.000
    Si4801   Si       0.78433    0.29186    0.60457    1.000
    Si4802   Si       0.85472    0.26471    0.54255    1.000
    N4803    N        0.74457    0.27159    0.61647    1.000
    N4804    N        0.85605    0.29128    0.57550    1.000
    Si4805   Si       0.74310    0.27383    0.54656    1.000
    Si4806   Si       0.95976    0.28114    0.55958    1.000
    N4807    N        0.92665    0.26485    0.58251    1.000
    Si4808   Si       0.89243    0.28847    0.59759    1.000
    N4809    N        0.89119    0.26583    0.51883    1.000
    N4810    N        0.95536    0.24230    0.53141    1.000
    N4811    N        0.77647    0.24587    0.73034    1.000
    Si4812   Si       0.83459    0.26454    0.63437    1.000
    N4813    N        0.81737    0.26243    0.67439    1.000
    Si4814   Si       0.82629    0.29261    0.70429    1.000
    N4815    N        0.84293    0.27351    0.74086    1.000
    Si4816   Si       0.94897    0.24810    0.66987    1.000
    N4817    N        0.93234    0.29107    0.67178    1.000
    Si4818   Si       0.89073    0.28468    0.67531    1.000
    N4819    N        0.98490    0.24607    0.64551    1.000
    N4820    N        0.87468    0.27926    0.63665    1.000
    Si4821   Si       0.98358    0.24872    0.73494    1.000
    N4822    N        0.88600    0.24652    0.69322    1.000
    Si4823   Si       0.78499    0.26620    0.82127    1.000
    N4824    N        0.75430    0.26222    0.85284    1.000
    Si4825   Si       0.74885    0.26935    0.75477    1.000
    Si4826   Si       0.84486    0.25986    0.86298    1.000
    N4827    N        0.76037    0.24436    0.79161    1.000
    N4828    N        0.97474    0.25320    0.77623    1.000
    N4829    N        0.94379    0.27110    0.82741    1.000
    Si4830   Si       0.94447    0.28325    0.78633    1.000
    N4831    N        0.91137    0.27781    0.75748    1.000
    Si4832   Si       0.92130    0.26978    0.86435    1.000
    N4833    N        0.88514    0.24558    0.85293    1.000
    Si4834   Si       0.87548    0.30135    0.75326    1.000
    Si4835   Si       0.83979    0.26241    0.93840    1.000
    N4836    N        0.80508    0.25904    0.96573    1.000
    N4837    N        0.96453    0.28343    0.99472    1.000
    N4838    N        0.90561    0.29638    0.96632    1.000
    Si4839   Si       0.90216    0.25415    0.97568    1.000
    N4840    N        0.94849    0.24825    0.88998    1.000
    Si4841   Si       0.75081    0.34191    0.07894    1.000
    Si4842   Si       0.82714    0.35021    0.09702    1.000
    N4843    N        0.84891    0.34031    0.06238    1.000
    Si4844   Si       0.77083    0.33652    0.00750    1.000
    Si4845   Si       0.84567    0.34897    0.01935    1.000
    N4846    N        0.74700    0.35584    0.03806    1.000
    N4847    N        0.84169    0.30759    0.00145    1.000
    N4848    N        0.78559    0.36250    0.09273    1.000
    N4849    N        0.96517    0.34116    0.09663    1.000
    Si4850   Si       0.95722    0.32337    0.05694    1.000
    N4851    N        0.91639    0.32847    0.04431    1.000
    Si4852   Si       0.88679    0.31758    0.07271    1.000
    N4853    N        0.90088    0.32554    0.11256    1.000
    Si4854   Si       0.91918    0.35480    0.00799    1.000
    Si4855   Si       0.92873    0.35691    0.11524    1.000
    N4856    N        0.98636    0.34064    0.03076    1.000
    N4857    N        0.82513    0.31670    0.12411    1.000
    N4858    N        0.83107    0.34225    0.23260    1.000
    Si4859   Si       0.82586    0.32323    0.16761    1.000
    N4860    N        0.79421    0.35377    0.17618    1.000
    N4861    N        0.96788    0.34480    0.21158    1.000
    Si4862   Si       0.89492    0.31186    0.15306    1.000
    Si4863   Si       0.87326    0.35149    0.21444    1.000
    N4864    N        0.90405    0.32861    0.23350    1.000
    N4865    N        0.86744    0.33662    0.17488    1.000
    Si4866   Si       0.93908    0.31182    0.21380    1.000
    Si4867   Si       0.84242    0.32613    0.32881    1.000
    N4868    N        0.85993    0.32901    0.29066    1.000
    Si4869   Si       0.83060    0.35892    0.27557    1.000
    N4870    N        0.98070    0.33007    0.28342    1.000
    N4871    N        0.87543    0.31119    0.35277    1.000
    N4872    N        0.93584    0.33698    0.35801    1.000
    Si4873   Si       0.97678    0.34292    0.37087    1.000
    Si4874   Si       0.88945    0.30908    0.26825    1.000
    Si4875   Si       0.91535    0.30417    0.33885    1.000
    Si4876   Si       0.97601    0.35897    0.25115    1.000
    Si4877   Si       0.81826    0.31861    0.43875    1.000
    N4878    N        0.76598    0.33918    0.38332    1.000
    N4879    N        0.82550    0.31356    0.39763    1.000
    Si4880   Si       0.75815    0.30885    0.48152    1.000
    Si4881   Si       0.79014    0.30342    0.37415    1.000
    Si4882   Si       0.95767    0.30424    0.48946    1.000
    N4883    N        0.98035    0.35007    0.41417    1.000
    N4884    N        0.93155    0.33437    0.47073    1.000
    Si4885   Si       0.86881    0.30655    0.39636    1.000
    Si4886   Si       0.89112    0.32356    0.45912    1.000
    N4887    N        0.89364    0.33900    0.41661    1.000
    Si4888   Si       0.80668    0.31443    0.53761    1.000
    N4889    N        0.82329    0.34639    0.56206    1.000
    N4890    N        0.78102    0.33592    0.50684    1.000
    Si4891   Si       0.84884    0.33388    0.59729    1.000
    N4892    N        0.76073    0.33213    0.61822    1.000
    N4893    N        0.95020    0.31277    0.53290    1.000
    Si4894   Si       0.95888    0.35530    0.54118    1.000
    N4895    N        0.89507    0.33168    0.59962    1.000
    N4896    N        0.81861    0.31230    0.62483    1.000
    Si4897   Si       0.75842    0.33667    0.71432    1.000
    N4898    N        0.79374    0.32034    0.69120    1.000
    Si4899   Si       0.79241    0.33762    0.64956    1.000
    N4900    N        0.86563    0.31223    0.69854    1.000
    Si4901   Si       0.94779    0.33132    0.67810    1.000
    Si4902   Si       0.87798    0.35233    0.70582    1.000
    N4903    N        0.97282    0.33895    0.64422    1.000
    N4904    N        0.96616    0.33259    0.71899    1.000
    N4905    N        0.89702    0.34254    0.74557    1.000
    N4906    N        0.91657    0.36138    0.68387    1.000
    Si4907   Si       0.76006    0.32690    0.79708    1.000
    Si4908   Si       0.83180    0.32185    0.82348    1.000
    N4909    N        0.75334    0.31158    0.75287    1.000
    N4910    N        0.79445    0.30607    0.80991    1.000
    N4911    N        0.86195    0.31751    0.79298    1.000
    N4912    N        0.83894    0.30261    0.86274    1.000
    Si4913   Si       0.87475    0.35607    0.78038    1.000
    N4914    N        0.95506    0.32404    0.78580    1.000
    Si4915   Si       0.97097    0.33994    0.82210    1.000
    N4916    N        0.95710    0.33367    0.86109    1.000
    Si4917   Si       0.94113    0.34836    0.75044    1.000
    N4918    N        0.74031    0.33577    0.97527    1.000
    Si4919   Si       0.86143    0.32117    0.89323    1.000
    N4920    N        0.74436    0.31609    0.90983    1.000
    N4921    N        0.84803    0.30585    0.93148    1.000
    N4922    N        0.90240    0.30330    0.88496    1.000
    N4923    N        0.95726    0.31355    0.92492    1.000
    Si4924   Si       0.86824    0.31840    0.96673    1.000
    Si4925   Si       0.93246    0.33325    0.89732    1.000
    N4926    N        0.95182    0.35159    0.97776    1.000
    N4927    N        0.87967    0.35415    0.98896    1.000
    Si4928   Si       0.94843    0.30915    0.96571    1.000
    Si4929   Si       0.81448    0.40561    0.01008    1.000
    N4930    N        0.85308    0.39967    0.03175    1.000
    Si4931   Si       0.74321    0.39911    0.03574    1.000
    N4932    N        0.83673    0.38722    0.11820    1.000
    N4933    N        0.80745    0.36300    0.00417    1.000
    Si4934   Si       0.79397    0.39807    0.11797    1.000
    N4935    N        0.92526    0.39465    0.02695    1.000
    N4936    N        0.90633    0.39222    0.10209    1.000
    Si4937   Si       0.96350    0.41580    0.02480    1.000
    N4938    N        0.97403    0.41304    0.06720    1.000
    Si4939   Si       0.87146    0.41185    0.12130    1.000
    Si4940   Si       0.75445    0.37129    0.17315    1.000
    N4941    N        0.75588    0.39821    0.13918    1.000
    Si4942   Si       0.80421    0.37523    0.21580    1.000
    N4943    N        0.76075    0.39600    0.21016    1.000
    N4944    N        0.81989    0.41543    0.19943    1.000
    Si4945   Si       0.92012    0.41254    0.23873    1.000
    N4946    N        0.94701    0.37596    0.15103    1.000
    Si4947   Si       0.92971    0.41507    0.15726    1.000
    Si4948   Si       0.98047    0.36347    0.17519    1.000
    N4949    N        0.88422    0.39383    0.22283    1.000
    N4950    N        0.88679    0.41714    0.16163    1.000
    Si4951   Si       0.80989    0.40280    0.33789    1.000
    N4952    N        0.80149    0.38760    0.26041    1.000
    N4953    N        0.82064    0.36548    0.31897    1.000
    N4954    N        0.95014    0.39159    0.26307    1.000
    Si4955   Si       0.98512    0.41814    0.27432    1.000
    N4956    N        0.80950    0.39519    0.38126    1.000
    N4957    N        0.75170    0.39630    0.48680    1.000
    Si4958   Si       0.78345    0.37226    0.40691    1.000
    Si4959   Si       0.78908    0.37438    0.48413    1.000
    N4960    N        0.75272    0.40366    0.42019    1.000
    N4961    N        0.85267    0.41038    0.45040    1.000
    Si4962   Si       0.85958    0.39806    0.49416    1.000
    Si4963   Si       0.84549    0.41818    0.38148    1.000
    N4964    N        0.80187    0.36153    0.44504    1.000
    N4965    N        0.87934    0.36452    0.47604    1.000
    N4966    N        0.87975    0.39430    0.38892    1.000
    N4967    N        0.97421    0.38880    0.47398    1.000
    Si4968   Si       0.96476    0.38949    0.42389    1.000
    Si4969   Si       0.88000    0.38292    0.43268    1.000
    Si4970   Si       0.93024    0.37753    0.47918    1.000
    N4971    N        0.94862    0.39498    0.38245    1.000
    Si4972   Si       0.91533    0.36627    0.38335    1.000
    N4973    N        0.92271    0.39592    0.43971    1.000
    N4974    N        0.76276    0.38306    0.56216    1.000
    Si4975   Si       0.80582    0.38398    0.55132    1.000
    N4976    N        0.82069    0.38937    0.50955    1.000
    Si4977   Si       0.85954    0.40822    0.59438    1.000
    N4978    N        0.82410    0.41822    0.57279    1.000
    N4979    N        0.85089    0.37495    0.62171    1.000
    N4980    N        0.89042    0.39297    0.57093    1.000
    N4981    N        0.93085    0.38389    0.52221    1.000
    Si4982   Si       0.91351    0.36947    0.59842    1.000
    Si4983   Si       0.97654    0.37623    0.62009    1.000
    Si4984   Si       0.91135    0.41735    0.54260    1.000
    N4985    N        0.95543    0.36252    0.58362    1.000
    Si4986   Si       0.76976    0.41626    0.64919    1.000
    Si4987   Si       0.75412    0.41637    0.71916    1.000
    Si4988   Si       0.83467    0.39444    0.65716    1.000
    Si4989   Si       0.81627    0.38944    0.72698    1.000
    N4990    N        0.84440    0.37879    0.69615    1.000
    N4991    N        0.79316    0.38010    0.65274    1.000
    N4992    N        0.77575    0.37703    0.71984    1.000
    Si4993   Si       0.92252    0.40260    0.67261    1.000
    N4994    N        0.92941    0.39738    0.62885    1.000
    Si4995   Si       0.97308    0.41907    0.73309    1.000
    N4996    N        0.95606    0.42152    0.69167    1.000
    Si4997   Si       0.80789    0.38437    0.79723    1.000
    N4998    N        0.84008    0.38419    0.76543    1.000
    N4999    N        0.76932    0.36878    0.79154    1.000
    N5000    N        0.82740    0.36362    0.82800    1.000
    Si5001   Si       0.82659    0.37821    0.86826    1.000
    Si5002   Si       0.73736    0.39852    0.79832    1.000
    N5003    N        0.74086    0.41983    0.76067    1.000
    Si5004   Si       0.93482    0.40341    0.79343    1.000
    N5005    N        0.89370    0.39032    0.79767    1.000
    N5006    N        0.96653    0.38215    0.81617    1.000
    N5007    N        0.94753    0.39094    0.75456    1.000
    Si5008   Si       0.86068    0.41905    0.78541    1.000
    N5009    N        0.79158    0.36423    0.88620    1.000
    N5010    N        0.86286    0.36594    0.88826    1.000
    Si5011   Si       0.75138    0.35795    0.89830    1.000
    N5012    N        0.92260    0.37179    0.91654    1.000
    Si5013   Si       0.95182    0.38713    0.94473    1.000
    Si5014   Si       0.89100    0.39820    0.90158    1.000
    N5015    N        0.98817    0.40212    0.99120    1.000
    Si5016   Si       0.77132    0.44462    0.06883    1.000
    N5017    N        0.79448    0.43979    0.10559    1.000
    N5018    N        0.85817    0.45215    0.11228    1.000
    Si5019   Si       0.82021    0.47329    0.11645    1.000
    N5020    N        0.78245    0.42085    0.03279    1.000
    N5021    N        0.95768    0.45780    0.01662    1.000
    N5022    N        0.90220    0.44581    0.06273    1.000
    Si5023   Si       0.93393    0.42258    0.08264    1.000
    Si5024   Si       0.87831    0.47796    0.08170    1.000
    Si5025   Si       0.88990    0.42129    0.02921    1.000
    N5026    N        0.75120    0.46072    0.20278    1.000
    Si5027   Si       0.78258    0.43369    0.21346    1.000
    Si5028   Si       0.86271    0.42422    0.19787    1.000
    N5029    N        0.86811    0.46534    0.20866    1.000
    N5030    N        0.94130    0.42610    0.19885    1.000
    Si5031   Si       0.98644    0.45261    0.13112    1.000
    N5032    N        0.94231    0.44245    0.12570    1.000
    Si5033   Si       0.98267    0.43424    0.20149    1.000
    N5034    N        0.98709    0.44579    0.24293    1.000
    N5035    N        0.77868    0.42866    0.32041    1.000
    Si5036   Si       0.75195    0.46109    0.33297    1.000
    N5037    N        0.84470    0.42857    0.33793    1.000
    Si5038   Si       0.86012    0.46498    0.32033    1.000
    N5039    N        0.84765    0.47398    0.27952    1.000
    N5040    N        0.78992    0.45339    0.25229    1.000
    Si5041   Si       0.77736    0.41950    0.27792    1.000
    N5042    N        0.91064    0.44785    0.26197    1.000
    Si5043   Si       0.93026    0.46055    0.29865    1.000
    N5044    N        0.96256    0.43351    0.31222    1.000
    Si5045   Si       0.96188    0.42785    0.35664    1.000
    N5046    N        0.90342    0.47173    0.32885    1.000
    Si5047   Si       0.88033    0.47567    0.24928    1.000
    Si5048   Si       0.83414    0.44953    0.44673    1.000
    Si5049   Si       0.75837    0.43025    0.45510    1.000
    N5050    N        0.79553    0.44978    0.46794    1.000
    N5051    N        0.83936    0.45323    0.40337    1.000
    Si5052   Si       0.98579    0.43079    0.46921    1.000
    N5053    N        0.95695    0.45746    0.48213    1.000
    N5054    N        0.95327    0.46516    0.37949    1.000
    N5055    N        0.86663    0.47628    0.46040    1.000
    N5056    N        0.77180    0.45182    0.53945    1.000
    Si5057   Si       0.79444    0.44706    0.57688    1.000
    Si5058   Si       0.79768    0.46929    0.50684    1.000
    N5059    N        0.76765    0.43490    0.60843    1.000
    N5060    N        0.92490    0.45232    0.56892    1.000
    N5061    N        0.88258    0.42920    0.51134    1.000
    Si5062   Si       0.92202    0.44036    0.61258    1.000
    N5063    N        0.87737    0.44146    0.61243    1.000
    Si5064   Si       0.87428    0.47148    0.50190    1.000
    N5065    N        0.76464    0.44247    0.68233    1.000
    Si5066   Si       0.80751    0.45678    0.69427    1.000
    N5067    N        0.82498    0.43675    0.65621    1.000
    N5068    N        0.80531    0.43286    0.73148    1.000
    Si5069   Si       0.86456    0.45821    0.64972    1.000
    N5070    N        0.85065    0.47838    0.69425    1.000
    N5071    N        0.94893    0.46382    0.63778    1.000
    Si5072   Si       0.97937    0.44342    0.66085    1.000
    Si5073   Si       0.88676    0.45926    0.70953    1.000
    N5074    N        0.88947    0.42939    0.67495    1.000
    Si5075   Si       0.79864    0.43859    0.83646    1.000
    Si5076   Si       0.80320    0.45889    0.76737    1.000
    N5077    N        0.81721    0.42975    0.79832    1.000
    N5078    N        0.75883    0.42354    0.82698    1.000
    N5079    N        0.82428    0.42057    0.86642    1.000
    Si5080   Si       0.74027    0.46372    0.84240    1.000
    N5081    N        0.78344    0.47679    0.84741    1.000
    N5082    N        0.87682    0.44211    0.74907    1.000
    Si5083   Si       0.97359    0.46992    0.79331    1.000
    N5084    N        0.87774    0.45328    0.81047    1.000
    Si5085   Si       0.90988    0.45140    0.83995    1.000
    N5086    N        0.94644    0.44144    0.81438    1.000
    N5087    N        0.96215    0.45706    0.75496    1.000
    Si5088   Si       0.75886    0.47131    0.91079    1.000
    N5089    N        0.82049    0.43270    0.97598    1.000
    Si5090   Si       0.83788    0.44912    0.89695    1.000
    N5091    N        0.74904    0.45594    0.95121    1.000
    N5092    N        0.80218    0.46214    0.91841    1.000
    Si5093   Si       0.79013    0.46096    0.96316    1.000
    Si5094   Si       0.85830    0.44592    0.96265    1.000
    N5095    N        0.86340    0.42611    0.92298    1.000
    Si5096   Si       0.93274    0.45580    0.90878    1.000
    Si5097   Si       0.93344    0.45936    0.98118    1.000
    N5098    N        0.94442    0.43336    0.94481    1.000
    N5099    N        0.89392    0.44362    0.99060    1.000
    N5100    N        0.91124    0.43138    0.87904    1.000
    N5101    N        0.84345    0.50378    0.07875    1.000
    Si5102   Si       0.75266    0.52079    0.08061    1.000
    Si5103   Si       0.76277    0.49878    0.02403    1.000
    N5104    N        0.77382    0.48687    0.06444    1.000
    N5105    N        0.90590    0.50484    0.09963    1.000
    N5106    N        0.97576    0.52913    0.02156    1.000
    N5107    N        0.97658    0.48920    0.10841    1.000
    N5108    N        0.82936    0.51265    0.23079    1.000
    N5109    N        0.74410    0.51798    0.16896    1.000
    N5110    N        0.81355    0.49215    0.15627    1.000
    Si5111   Si       0.78512    0.52689    0.15761    1.000
    Si5112   Si       0.84303    0.49663    0.18964    1.000
    N5113    N        0.75382    0.52140    0.24311    1.000
    Si5114   Si       0.73953    0.50264    0.20901    1.000
    Si5115   Si       0.93734    0.48857    0.12360    1.000
    Si5116   Si       0.96467    0.52744    0.18809    1.000
    N5117    N        0.93380    0.50829    0.16088    1.000
    N5118    N        0.96982    0.51542    0.22772    1.000
    N5119    N        0.86723    0.53180    0.17663    1.000
    N5120    N        0.79173    0.51627    0.29353    1.000
    N5121    N        0.84165    0.49827    0.34187    1.000
    Si5122   Si       0.82098    0.52965    0.32146    1.000
    Si5123   Si       0.75015    0.52758    0.28647    1.000
    N5124    N        0.76741    0.48154    0.36521    1.000
    Si5125   Si       0.80962    0.49045    0.26405    1.000
    N5126    N        0.95424    0.49877    0.28661    1.000
    Si5127   Si       0.97465    0.51786    0.31948    1.000
    N5128    N        0.94010    0.52387    0.34617    1.000
    Si5129   Si       0.92097    0.48855    0.36479    1.000
    Si5130   Si       0.93608    0.52741    0.25406    1.000
    Si5131   Si       0.98507    0.48715    0.25827    1.000
    N5132    N        0.89464    0.51665    0.25187    1.000
    Si5133   Si       0.78000    0.52034    0.37782    1.000
    N5134    N        0.81507    0.51409    0.40349    1.000
    Si5135   Si       0.84766    0.49287    0.38403    1.000
    Si5136   Si       0.89230    0.50259    0.43662    1.000
    N5137    N        0.93200    0.51090    0.44789    1.000
    Si5138   Si       0.94377    0.49768    0.48700    1.000
    N5139    N        0.88938    0.49368    0.39394    1.000
    Si5140   Si       0.83619    0.50880    0.55683    1.000
    Si5141   Si       0.79593    0.51380    0.61481    1.000
    N5142    N        0.81040    0.48784    0.58351    1.000
    N5143    N        0.77603    0.50530    0.49974    1.000
    N5144    N        0.83630    0.48336    0.52048    1.000
    N5145    N        0.97456    0.52454    0.50064    1.000
    N5146    N        0.87640    0.50575    0.57809    1.000
    N5147    N        0.94402    0.52689    0.56615    1.000
    Si5148   Si       0.91392    0.49427    0.55742    1.000
    N5149    N        0.90888    0.49289    0.51443    1.000
    Si5150   Si       0.98138    0.52193    0.54416    1.000
    Si5151   Si       0.86927    0.52604    0.61880    1.000
    Si5152   Si       0.74838    0.48788    0.67626    1.000
    N5153    N        0.75839    0.50485    0.63540    1.000
    Si5154   Si       0.82846    0.51375    0.68127    1.000
    N5155    N        0.83104    0.51312    0.63796    1.000
    N5156    N        0.79095    0.49767    0.69811    1.000
    Si5157   Si       0.77077    0.51180    0.73478    1.000
    N5158    N        0.96434    0.52548    0.66602    1.000
    N5159    N        0.89089    0.49548    0.64617    1.000
    N5160    N        0.92178    0.48401    0.70512    1.000
    Si5161   Si       0.94287    0.49597    0.74004    1.000
    Si5162   Si       0.93192    0.49565    0.66366    1.000
    N5163    N        0.98005    0.51396    0.73002    1.000
    Si5164   Si       0.81161    0.50759    0.85867    1.000
    N5165    N        0.83305    0.49121    0.76949    1.000
    Si5166   Si       0.82625    0.53468    0.77946    1.000
    N5167    N        0.82043    0.53406    0.82239    1.000
    N5168    N        0.76523    0.48251    0.76258    1.000
    N5169    N        0.90763    0.50275    0.76648    1.000
    N5170    N        0.91513    0.49720    0.84617    1.000
    N5171    N        0.96197    0.50892    0.80132    1.000
    Si5172   Si       0.92045    0.51903    0.80653    1.000
    Si5173   Si       0.95383    0.51504    0.86753    1.000
    Si5174   Si       0.87273    0.47781    0.77378    1.000
    N5175    N        0.84669    0.48493    0.87432    1.000
    N5176    N        0.75453    0.51462    0.91183    1.000
    Si5177   Si       0.82654    0.52076    0.98108    1.000
    N5178    N        0.85667    0.49037    0.96624    1.000
    N5179    N        0.79090    0.49515    0.99216    1.000
    Si5180   Si       0.95222    0.53882    0.98781    1.000
    Si5181   Si       0.88419    0.50673    0.87817    1.000
    N5182    N        0.93122    0.50354    0.97239    1.000
    Si5183   Si       0.89281    0.50785    0.95201    1.000
    N5184    N        0.90148    0.48633    0.91508    1.000
    N5185    N        0.96512    0.48134    0.89108    1.000
    N5186    N        0.80090    0.57019    0.06352    1.000
    Si5187   Si       0.79968    0.57158    0.10662    1.000
    N5188    N        0.84229    0.56230    0.10775    1.000
    Si5189   Si       0.83932    0.54654    0.05860    1.000
    Si5190   Si       0.77379    0.59447    0.03606    1.000
    N5191    N        0.75102    0.58386    0.99976    1.000
    N5192    N        0.83918    0.53793    0.01695    1.000
    N5193    N        0.74388    0.53507    0.03895    1.000
    N5194    N        0.77584    0.53679    0.11481    1.000
    N5195    N        0.88493    0.55804    0.06183    1.000
    Si5196   Si       0.91695    0.57817    0.04040    1.000
    N5197    N        0.95460    0.58323    0.06464    1.000
    Si5198   Si       0.88232    0.54079    0.10199    1.000
    N5199    N        0.92037    0.56474    0.99918    1.000
    Si5200   Si       0.84304    0.56523    0.18852    1.000
    N5201    N        0.85521    0.57446    0.22857    1.000
    N5202    N        0.80152    0.55902    0.17968    1.000
    N5203    N        0.74126    0.59578    0.17724    1.000
    N5204    N        0.93478    0.55895    0.19483    1.000
    N5205    N        0.89993    0.56908    0.13098    1.000
    Si5206   Si       0.94574    0.58934    0.22343    1.000
    Si5207   Si       0.90808    0.54271    0.16557    1.000
    N5208    N        0.97989    0.59509    0.14248    1.000
    Si5209   Si       0.86597    0.59513    0.12859    1.000
    N5210    N        0.84517    0.55328    0.29366    1.000
    N5211    N        0.79884    0.55149    0.35147    1.000
    Si5212   Si       0.81628    0.58739    0.36964    1.000
    Si5213   Si       0.85643    0.54004    0.25308    1.000
    Si5214   Si       0.84652    0.59477    0.29958    1.000
    N5215    N        0.93523    0.56953    0.26211    1.000
    Si5216   Si       0.93599    0.56585    0.35863    1.000
    N5217    N        0.91102    0.58822    0.33055    1.000
    Si5218   Si       0.92052    0.60021    0.28968    1.000
    N5219    N        0.74890    0.54323    0.39632    1.000
    N5220    N        0.82249    0.58149    0.41314    1.000
    N5221    N        0.81232    0.55431    0.46952    1.000
    Si5222   Si       0.83012    0.54272    0.43111    1.000
    Si5223   Si       0.80243    0.59240    0.45263    1.000
    Si5224   Si       0.75374    0.58947    0.39724    1.000
    Si5225   Si       0.95479    0.53974    0.42502    1.000
    N5226    N        0.92715    0.56030    0.40019    1.000
    Si5227   Si       0.89293    0.57671    0.42081    1.000
    N5228    N        0.87210    0.54104    0.43567    1.000
    N5229    N        0.96913    0.57128    0.45234    1.000
    N5230    N        0.84873    0.56318    0.59749    1.000
    N5231    N        0.78260    0.55235    0.59779    1.000
    Si5232   Si       0.81385    0.57286    0.57435    1.000
    N5233    N        0.76608    0.57600    0.51018    1.000
    Si5234   Si       0.79497    0.54316    0.50658    1.000
    N5235    N        0.82112    0.54581    0.54082    1.000
    Si5236   Si       0.93173    0.56062    0.59152    1.000
    N5237    N        0.96973    0.57205    0.60917    1.000
    N5238    N        0.90664    0.58820    0.57060    1.000
    Si5239   Si       0.87580    0.59594    0.60081    1.000
    Si5240   Si       0.74956    0.56141    0.62609    1.000
    N5241    N        0.83732    0.55469    0.68776    1.000
    Si5242   Si       0.85550    0.57342    0.72280    1.000
    N5243    N        0.77038    0.56885    0.66677    1.000
    Si5244   Si       0.80900    0.58867    0.68162    1.000
    N5245    N        0.75009    0.59303    0.73190    1.000
    Si5246   Si       0.96913    0.56607    0.65130    1.000
    N5247    N        0.89615    0.57859    0.70681    1.000
    N5248    N        0.90610    0.55402    0.62620    1.000
    Si5249   Si       0.90324    0.58054    0.66183    1.000
    N5250    N        0.94519    0.59788    0.66728    1.000
    Si5251   Si       0.76676    0.57803    0.77130    1.000
    Si5252   Si       0.82809    0.56784    0.85066    1.000
    N5253    N        0.85746    0.55877    0.76434    1.000
    Si5254   Si       0.75472    0.58856    0.84236    1.000
    N5255    N        0.79181    0.54395    0.75585    1.000
    N5256    N        0.74583    0.56371    0.80705    1.000
    N5257    N        0.85255    0.59503    0.82523    1.000
    N5258    N        0.90792    0.55768    0.82027    1.000
    Si5259   Si       0.88040    0.57955    0.79488    1.000
    Si5260   Si       0.90395    0.57153    0.86271    1.000
    N5261    N        0.98185    0.58001    0.78710    1.000
    Si5262   Si       0.84639    0.55632    0.91578    1.000
    N5263    N        0.77204    0.58853    0.92741    1.000
    Si5264   Si       0.78177    0.54779    0.92048    1.000
    N5265    N        0.80850    0.54308    0.88550    1.000
    N5266    N        0.81562    0.54353    0.94820    1.000
    Si5267   Si       0.94929    0.57719    0.91801    1.000
    N5268    N        0.88247    0.54982    0.94338    1.000
    N5269    N        0.86782    0.54907    0.87675    1.000
    N5270    N        0.93303    0.54816    0.88663    1.000
    Si5271   Si       0.89692    0.58195    0.96678    1.000
    N5272    N        0.97165    0.55616    0.95195    1.000
    N5273    N        0.79344    0.63023    0.02133    1.000
    Si5274   Si       0.76820    0.63531    0.10389    1.000
    N5275    N        0.75036    0.61417    0.06580    1.000
    N5276    N        0.86965    0.63081    0.10548    1.000
    N5277    N        0.94105    0.64179    0.10008    1.000
    N5278    N        0.90119    0.62023    0.03920    1.000
    Si5279   Si       0.90236    0.64061    0.07698    1.000
    Si5280   Si       0.88600    0.64241    0.00541    1.000
    Si5281   Si       0.96947    0.60809    0.09995    1.000
    N5282    N        0.78774    0.60505    0.12854    1.000
    Si5283   Si       0.83378    0.64267    0.18580    1.000
    N5284    N        0.79479    0.62617    0.20413    1.000
    N5285    N        0.84961    0.64686    0.22650    1.000
    N5286    N        0.85198    0.60433    0.16895    1.000
    Si5287   Si       0.80870    0.63804    0.24398    1.000
    N5288    N        0.74002    0.65311    0.13097    1.000
    Si5289   Si       0.78366    0.59824    0.17248    1.000
    N5290    N        0.95029    0.65323    0.16762    1.000
    N5291    N        0.91400    0.62070    0.22334    1.000
    Si5292   Si       0.98422    0.62641    0.17043    1.000
    N5293    N        0.98273    0.60870    0.21344    1.000
    Si5294   Si       0.87429    0.61241    0.23698    1.000
    Si5295   Si       0.93021    0.65747    0.20641    1.000
    N5296    N        0.81282    0.61739    0.28335    1.000
    N5297    N        0.74869    0.62946    0.31288    1.000
    Si5298   Si       0.78863    0.64705    0.30422    1.000
    N5299    N        0.84566    0.60403    0.34298    1.000
    N5300    N        0.95247    0.63238    0.29270    1.000
    Si5301   Si       0.88732    0.61672    0.35511    1.000
    Si5302   Si       0.95316    0.63089    0.33666    1.000
    N5303    N        0.88075    0.61075    0.27980    1.000
    N5304    N        0.91281    0.65025    0.34642    1.000
    N5305    N        0.96904    0.59329    0.35226    1.000
    N5306    N        0.78188    0.61518    0.37278    1.000
    N5307    N        0.82492    0.62087    0.47482    1.000
    Si5308   Si       0.80196    0.65347    0.49227    1.000
    N5309    N        0.76000    0.59456    0.44106    1.000
    N5310    N        0.90006    0.59979    0.45812    1.000
    Si5311   Si       0.86920    0.62213    0.47887    1.000
    Si5312   Si       0.94256    0.60308    0.46899    1.000
    N5313    N        0.94739    0.64136    0.44835    1.000
    N5314    N        0.88829    0.61318    0.39732    1.000
    Si5315   Si       0.90678    0.64060    0.42773    1.000
    Si5316   Si       0.76643    0.61055    0.53720    1.000
    N5317    N        0.80384    0.61244    0.55838    1.000
    N5318    N        0.85304    0.63398    0.59236    1.000
    Si5319   Si       0.82870    0.65060    0.56082    1.000
    N5320    N        0.76743    0.65008    0.51746    1.000
    N5321    N        0.74442    0.60388    0.61694    1.000
    Si5322   Si       0.97805    0.62899    0.53931    1.000
    Si5323   Si       0.91879    0.61471    0.54020    1.000
    N5324    N        0.88961    0.63445    0.51441    1.000
    N5325    N        0.94366    0.64579    0.56089    1.000
    N5326    N        0.95038    0.60524    0.51281    1.000
    N5327    N        0.81254    0.61652    0.64895    1.000
    Si5328   Si       0.77205    0.63082    0.64025    1.000
    Si5329   Si       0.84842    0.63959    0.63613    1.000
    N5330    N        0.75378    0.63833    0.67706    1.000
    Si5331   Si       0.74688    0.63538    0.71884    1.000
    N5332    N        0.82354    0.60344    0.72175    1.000
    N5333    N        0.96019    0.61090    0.72847    1.000
    Si5334   Si       0.91787    0.60822    0.72868    1.000
    N5335    N        0.87733    0.60799    0.64311    1.000
    Si5336   Si       0.97941    0.61391    0.68951    1.000
    N5337    N        0.89575    0.64836    0.72694    1.000
    Si5338   Si       0.82973    0.63483    0.82007    1.000
    N5339    N        0.78647    0.61348    0.78545    1.000
    Si5340   Si       0.76309    0.64645    0.80436    1.000
    N5341    N        0.84187    0.64415    0.77893    1.000
    Si5342   Si       0.80957    0.63066    0.75310    1.000
    N5343    N        0.79379    0.59734    0.85769    1.000
    N5344    N        0.90419    0.60792    0.77327    1.000
    Si5345   Si       0.88437    0.64721    0.76909    1.000
    Si5346   Si       0.98418    0.61642    0.76506    1.000
    N5347    N        0.98248    0.65015    0.85282    1.000
    N5348    N        0.97439    0.65479    0.78329    1.000
    Si5349   Si       0.85093    0.62905    0.94359    1.000
    Si5350   Si       0.80007    0.60901    0.89960    1.000
    N5351    N        0.74623    0.64476    0.95914    1.000
    N5352    N        0.78934    0.65221    0.89817    1.000
    N5353    N        0.84009    0.60001    0.91342    1.000
    N5354    N        0.81689    0.65169    0.95871    1.000
    Si5355   Si       0.74445    0.60168    0.95900    1.000
    N5356    N        0.87048    0.61268    0.97867    1.000
    Si5357   Si       0.88232    0.64671    0.87639    1.000
    N5358    N        0.90781    0.61252    0.87319    1.000
    Si5359   Si       0.94562    0.63974    0.87442    1.000
    Si5360   Si       0.92002    0.64639    0.93994    1.000
    N5361    N        0.92160    0.60434    0.93976    1.000
    N5362    N        0.97286    0.60813    0.89824    1.000
    N5363    N        0.78937    0.69372    0.01497    1.000
    N5364    N        0.84116    0.69624    0.08975    1.000
    N5365    N        0.78056    0.66814    0.07933    1.000
    N5366    N        0.85475    0.66817    0.02038    1.000
    Si5367   Si       0.79902    0.70642    0.08949    1.000
    Si5368   Si       0.76795    0.65963    0.03900    1.000
    Si5369   Si       0.81587    0.66167    0.00169    1.000
    Si5370   Si       0.86019    0.67141    0.11990    1.000
    Si5371   Si       0.86380    0.69753    0.05122    1.000
    N5372    N        0.96095    0.68222    0.03191    1.000
    N5373    N        0.90146    0.68106    0.06501    1.000
    Si5374   Si       0.94155    0.69852    0.06837    1.000
    N5375    N        0.95779    0.70436    0.10845    1.000
    N5376    N        0.83705    0.67264    0.15831    1.000
    Si5377   Si       0.95958    0.71355    0.20976    1.000
    N5378    N        0.89935    0.68864    0.20356    1.000
    N5379    N        0.95673    0.67701    0.23443    1.000
    Si5380   Si       0.93928    0.67359    0.13044    1.000
    Si5381   Si       0.86815    0.68808    0.23501    1.000
    N5382    N        0.89743    0.68646    0.13663    1.000
    N5383    N        0.79668    0.67334    0.33834    1.000
    N5384    N        0.79270    0.67295    0.26836    1.000
    Si5385   Si       0.80749    0.71496    0.26040    1.000
    Si5386   Si       0.79313    0.71539    0.33170    1.000
    N5387    N        0.88660    0.69523    0.27484    1.000
    N5388    N        0.95903    0.70523    0.29408    1.000
    Si5389   Si       0.97260    0.66761    0.27534    1.000
    N5390    N        0.86889    0.70547    0.34989    1.000
    Si5391   Si       0.90787    0.68839    0.36401    1.000
    N5392    N        0.97649    0.66366    0.34783    1.000
    N5393    N        0.80121    0.68311    0.46106    1.000
    N5394    N        0.82609    0.66914    0.39821    1.000
    Si5395   Si       0.83717    0.67892    0.43789    1.000
    N5396    N        0.74644    0.66825    0.39089    1.000
    Si5397   Si       0.84181    0.70737    0.38312    1.000
    Si5398   Si       0.78940    0.65886    0.37865    1.000
    N5399    N        0.87138    0.66003    0.45358    1.000
    N5400    N        0.97220    0.70709    0.47463    1.000
    Si5401   Si       0.97933    0.67221    0.44833    1.000
    Si5402   Si       0.89593    0.70193    0.44092    1.000
    N5403    N        0.90077    0.70539    0.48729    1.000
    N5404    N        0.98036    0.69325    0.41118    1.000
    N5405    N        0.90669    0.67875    0.40519    1.000
    N5406    N        0.82524    0.69312    0.57569    1.000
    N5407    N        0.74561    0.70679    0.56569    1.000
    N5408    N        0.83452    0.66648    0.51806    1.000
    Si5409   Si       0.81349    0.69098    0.61602    1.000
    Si5410   Si       0.74353    0.69202    0.60549    1.000
    N5411    N        0.77882    0.66491    0.61337    1.000
    Si5412   Si       0.74225    0.68302    0.52648    1.000
    Si5413   Si       0.87529    0.67791    0.51221    1.000
    Si5414   Si       0.92874    0.68524    0.56756    1.000
    N5415    N        0.88979    0.69310    0.55068    1.000
    N5416    N        0.93194    0.71523    0.60072    1.000
    N5417    N        0.79414    0.71532    0.69340    1.000
    N5418    N        0.84046    0.67865    0.64817    1.000
    Si5419   Si       0.77824    0.69912    0.73035    1.000
    N5420    N        0.85732    0.70385    0.71350    1.000
    N5421    N        0.78082    0.65704    0.73549    1.000
    Si5422   Si       0.83472    0.71047    0.67722    1.000
    Si5423   Si       0.93778    0.70851    0.64124    1.000
    N5424    N        0.98307    0.70165    0.64308    1.000
    N5425    N        0.91297    0.68510    0.66569    1.000
    Si5426   Si       0.89708    0.68640    0.70525    1.000
    N5427    N        0.92321    0.71123    0.72846    1.000
    N5428    N        0.79586    0.66887    0.82258    1.000
    Si5429   Si       0.80884    0.67909    0.86761    1.000
    N5430    N        0.84488    0.65350    0.85704    1.000
    N5431    N        0.89629    0.68063    0.79342    1.000
    Si5432   Si       0.91173    0.69912    0.82975    1.000
    N5433    N        0.91618    0.67250    0.86140    1.000
    N5434    N        0.77134    0.70429    0.94171    1.000
    Si5435   Si       0.78032    0.66291    0.93975    1.000
    N5436    N        0.83777    0.70789    0.89718    1.000
    N5437    N        0.85051    0.71305    0.96482    1.000
    N5438    N        0.78008    0.71287    0.87494    1.000
    Si5439   Si       0.86802    0.69929    0.92868    1.000
    N5440    N        0.98679    0.67307    0.97014    1.000
    N5441    N        0.94622    0.67003    0.91450    1.000
    N5442    N        0.91447    0.66363    0.97939    1.000
    Si5443   Si       0.95014    0.68816    0.99011    1.000
    Si5444   Si       0.92812    0.70438    0.89008    1.000
    N5445    N        0.87853    0.65681    0.92143    1.000
    N5446    N        0.79425    0.74390    0.06546    1.000
    Si5447   Si       0.78223    0.73462    0.02345    1.000
    N5448    N        0.85651    0.73783    0.03409    1.000
    N5449    N        0.74228    0.75514    0.02678    1.000
    Si5450   Si       0.96456    0.74970    0.01935    1.000
    N5451    N        0.94005    0.73957    0.05394    1.000
    N5452    N        0.88284    0.75610    0.09913    1.000
    Si5453   Si       0.92180    0.76648    0.08200    1.000
    Si5454   Si       0.86691    0.77118    0.05927    1.000
    Si5455   Si       0.86259    0.76987    0.13423    1.000
    Si5456   Si       0.83952    0.75272    0.20149    1.000
    N5457    N        0.79725    0.75160    0.18813    1.000
    Si5458   Si       0.78767    0.75214    0.14763    1.000
    N5459    N        0.83942    0.72080    0.23141    1.000
    Si5460   Si       0.76981    0.76854    0.22030    1.000
    N5461    N        0.81987    0.76966    0.12402    1.000
    N5462    N        0.77554    0.71477    0.12730    1.000
    N5463    N        0.94240    0.72467    0.17020    1.000
    N5464    N        0.94147    0.74030    0.23815    1.000
    N5465    N        0.86750    0.74424    0.16887    1.000
    Si5466   Si       0.96687    0.73830    0.13423    1.000
    Si5467   Si       0.89956    0.71520    0.16851    1.000
    N5468    N        0.82391    0.72591    0.30053    1.000
    Si5469   Si       0.75259    0.75382    0.28606    1.000
    N5470    N        0.77496    0.74136    0.25219    1.000
    N5471    N        0.80810    0.73538    0.36959    1.000
    Si5472   Si       0.81968    0.76980    0.30629    1.000
    N5473    N        0.75110    0.71909    0.31457    1.000
    N5474    N        0.90053    0.74756    0.30156    1.000
    N5475    N        0.96524    0.76709    0.32628    1.000
    Si5476   Si       0.97274    0.72483    0.33135    1.000
    N5477    N        0.93956    0.71903    0.36358    1.000
    Si5478   Si       0.92403    0.71900    0.27283    1.000
    Si5479   Si       0.86817    0.72033    0.30785    1.000
    N5480    N        0.74035    0.72014    0.44145    1.000
    Si5481   Si       0.83973    0.75776    0.44077    1.000
    N5482    N        0.80817    0.74909    0.47004    1.000
    N5483    N        0.85436    0.71877    0.42560    1.000
    Si5484   Si       0.77783    0.71853    0.46671    1.000
    N5485    N        0.92556    0.76186    0.49464    1.000
    N5486    N        0.97930    0.76350    0.39321    1.000
    N5487    N        0.92494    0.73635    0.43322    1.000
    Si5488   Si       0.88400    0.74703    0.49503    1.000
    Si5489   Si       0.95477    0.72986    0.40339    1.000
    Si5490   Si       0.75368    0.74450    0.54498    1.000
    N5491    N        0.85332    0.73911    0.52356    1.000
    Si5492   Si       0.82034    0.76452    0.50927    1.000
    Si5493   Si       0.85649    0.72013    0.56308    1.000
    N5494    N        0.75132    0.72379    0.50411    1.000
    N5495    N        0.79529    0.76171    0.54540    1.000
    N5496    N        0.86502    0.75067    0.59418    1.000
    Si5497   Si       0.95001    0.74517    0.57345    1.000
    N5498    N        0.97496    0.76766    0.60031    1.000
    Si5499   Si       0.94003    0.71956    0.50154    1.000
    N5500    N        0.91881    0.77307    0.55837    1.000
    N5501    N        0.95646    0.71178    0.54347    1.000
    N5502    N        0.76239    0.77470    0.67116    1.000
    Si5503   Si       0.83664    0.75711    0.62607    1.000
    N5504    N        0.80293    0.72968    0.63027    1.000
    N5505    N        0.84841    0.75101    0.66635    1.000
    Si5506   Si       0.77330    0.73401    0.65930    1.000
    Si5507   Si       0.84086    0.73145    0.74294    1.000
    Si5508   Si       0.98736    0.74189    0.65795    1.000
    Si5509   Si       0.94745    0.74085    0.70803    1.000
    N5510    N        0.94366    0.74869    0.66507    1.000
    Si5511   Si       0.75938    0.74440    0.85595    1.000
    N5512    N        0.76140    0.72779    0.81381    1.000
    N5513    N        0.83438    0.72709    0.82905    1.000
    Si5514   Si       0.85587    0.73317    0.86706    1.000
    Si5515   Si       0.85719    0.75987    0.80658    1.000
    N5516    N        0.80517    0.71609    0.76406    1.000
    Si5517   Si       0.80027    0.71007    0.80750    1.000
    N5518    N        0.87291    0.73804    0.77149    1.000
    Si5519   Si       0.97720    0.74154    0.80022    1.000
    N5520    N        0.89588    0.73060    0.85442    1.000
    Si5521   Si       0.93182    0.75736    0.84447    1.000
    N5522    N        0.93578    0.72654    0.80310    1.000
    Si5523   Si       0.90980    0.71492    0.76989    1.000
    N5524    N        0.79910    0.76410    0.92167    1.000
    Si5525   Si       0.80091    0.72172    0.91340    1.000
    Si5526   Si       0.84476    0.74785    0.99088    1.000
    N5527    N        0.80321    0.76042    0.99232    1.000
    N5528    N        0.73734    0.76447    0.95126    1.000
    N5529    N        0.95739    0.73114    0.87227    1.000
    N5530    N        0.87821    0.77196    0.97662    1.000
    Si5531   Si       0.91479    0.75118    0.95786    1.000
    N5532    N        0.90573    0.72473    0.92463    1.000
    N5533    N        0.94261    0.73067    0.98434    1.000
    N5534    N        0.76925    0.80600    0.08930    1.000
    N5535    N        0.83446    0.79924    0.05993    1.000
    N5536    N        0.75258    0.82330    0.02877    1.000
    Si5537   Si       0.80480    0.78146    0.08574    1.000
    Si5538   Si       0.74439    0.78978    0.05266    1.000
    N5539    N        0.90387    0.79646    0.05531    1.000
    N5540    N        0.96831    0.79245    0.02584    1.000
    Si5541   Si       0.93237    0.81675    0.03257    1.000
    N5542    N        0.95183    0.77387    0.11201    1.000
    N5543    N        0.91019    0.83276    0.99893    1.000
    N5544    N        0.85364    0.79327    0.21576    1.000
    N5545    N        0.78594    0.80876    0.23312    1.000
    Si5546   Si       0.82917    0.81419    0.24667    1.000
    N5547    N        0.75204    0.77470    0.14728    1.000
    Si5548   Si       0.95113    0.78235    0.23373    1.000
    Si5549   Si       0.88554    0.81153    0.19310    1.000
    N5550    N        0.87857    0.80935    0.14791    1.000
    N5551    N        0.92485    0.79778    0.20333    1.000
    N5552    N        0.98043    0.82886    0.14508    1.000
    Si5553   Si       0.98929    0.79598    0.11860    1.000
    N5554    N        0.84490    0.79738    0.28336    1.000
    Si5555   Si       0.75967    0.80109    0.33661    1.000
    N5556    N        0.84088    0.78464    0.34281    1.000
    N5557    N        0.77877    0.77650    0.30958    1.000
    Si5558   Si       0.86750    0.81220    0.32172    1.000
    N5559    N        0.94305    0.79920    0.27368    1.000
    N5560    N        0.90685    0.80549    0.34019    1.000
    Si5561   Si       0.92890    0.78071    0.31086    1.000
    N5562    N        0.96278    0.82776    0.36907    1.000
    Si5563   Si       0.98889    0.79687    0.34781    1.000
    Si5564   Si       0.86518    0.81373    0.48443    1.000
    N5565    N        0.77682    0.80308    0.37689    1.000
    Si5566   Si       0.81326    0.77832    0.37763    1.000
    N5567    N        0.83702    0.78898    0.41101    1.000
    Si5568   Si       0.85323    0.82925    0.41249    1.000
    N5569    N        0.87029    0.77432    0.46700    1.000
    Si5570   Si       0.93383    0.77425    0.45270    1.000
    N5571    N        0.98088    0.77833    0.46022    1.000
    Si5572   Si       0.92076    0.81634    0.38018    1.000
    N5573    N        0.92277    0.80020    0.42183    1.000
    Si5574   Si       0.79808    0.78961    0.58198    1.000
    N5575    N        0.82654    0.80646    0.50499    1.000
    N5576    N        0.82367    0.79697    0.61561    1.000
    N5577    N        0.76238    0.77791    0.60417    1.000
    N5578    N        0.80394    0.82755    0.56393    1.000
    Si5579   Si       0.92570    0.79591    0.52097    1.000
    N5580    N        0.96559    0.81242    0.52005    1.000
    Si5581   Si       0.89189    0.78452    0.58843    1.000
    Si5582   Si       0.96711    0.81242    0.61373    1.000
    N5583    N        0.87416    0.82455    0.57963    1.000
    N5584    N        0.90035    0.82813    0.50436    1.000
    N5585    N        0.91615    0.80347    0.62104    1.000
    Si5586   Si       0.81007    0.82761    0.64333    1.000
    Si5587   Si       0.74280    0.79900    0.63829    1.000
    Si5588   Si       0.74746    0.79819    0.70331    1.000
    Si5589   Si       0.85271    0.78639    0.69145    1.000
    N5590    N        0.82594    0.82320    0.68393    1.000
    N5591    N        0.83744    0.77262    0.72940    1.000
    Si5592   Si       0.92826    0.78974    0.66007    1.000
    N5593    N        0.94520    0.78069    0.72773    1.000
    Si5594   Si       0.91322    0.81087    0.72513    1.000
    N5595    N        0.96634    0.81511    0.65854    1.000
    Si5596   Si       0.98582    0.78605    0.74201    1.000
    N5597    N        0.89412    0.79849    0.68719    1.000
    N5598    N        0.75725    0.80494    0.78810    1.000
    Si5599   Si       0.79116    0.80319    0.81562    1.000
    Si5600   Si       0.84630    0.80201    0.75997    1.000
    N5601    N        0.82373    0.78592    0.79295    1.000
    N5602    N        0.78497    0.77938    0.85012    1.000
    N5603    N        0.88417    0.78980    0.82331    1.000
    N5604    N        0.88839    0.80850    0.76031    1.000
    Si5605   Si       0.97437    0.81823    0.81386    1.000
    Si5606   Si       0.89640    0.82564    0.79990    1.000
    Si5607   Si       0.88526    0.79733    0.86419    1.000
    N5608    N        0.96773    0.77639    0.82371    1.000
    N5609    N        0.84844    0.77676    0.87569    1.000
    N5610    N        0.77437    0.81946    0.95888    1.000
    Si5611   Si       0.80810    0.78664    0.88566    1.000
    N5612    N        0.78746    0.82603    0.89233    1.000
    Si5613   Si       0.78004    0.77520    0.95904    1.000
    Si5614   Si       0.94745    0.80185    0.90879    1.000
    Si5615   Si       0.89337    0.81380    0.96509    1.000
    N5616    N        0.92632    0.78791    0.87413    1.000
    N5617    N        0.98788    0.78551    0.90766    1.000
    N5618    N        0.92589    0.79221    0.94477    1.000
    Si5619   Si       0.77571    0.84917    0.08993    1.000
    N5620    N        0.81191    0.86080    0.07161    1.000
    Si5621   Si       0.83853    0.83924    0.04441    1.000
    N5622    N        0.82232    0.84664    0.00420    1.000
    N5623    N        0.74504    0.87427    0.07187    1.000
    Si5624   Si       0.84940    0.88773    0.08500    1.000
    N5625    N        0.87145    0.86415    0.05166    1.000
    Si5626   Si       0.97152    0.87828    0.03891    1.000
    Si5627   Si       0.90571    0.87269    0.02204    1.000
    N5628    N        0.93979    0.85446    0.05373    1.000
    N5629    N        0.84381    0.87203    0.12862    1.000
    N5630    N        0.77498    0.86090    0.13133    1.000
    Si5631   Si       0.77551    0.84844    0.21608    1.000
    N5632    N        0.81026    0.86139    0.19368    1.000
    Si5633   Si       0.84779    0.87304    0.21461    1.000
    Si5634   Si       0.80772    0.87944    0.15254    1.000
    N5635    N        0.74208    0.86294    0.19140    1.000
    Si5636   Si       0.91152    0.89109    0.19412    1.000
    Si5637   Si       0.98313    0.88078    0.22036    1.000
    Si5638   Si       0.87897    0.85293    0.14509    1.000
    N5639    N        0.98598    0.84277    0.24395    1.000
    N5640    N        0.91803    0.86731    0.13395    1.000
    N5641    N        0.87981    0.85779    0.18991    1.000
    Si5642   Si       0.95852    0.86513    0.15030    1.000
    N5643    N        0.95302    0.87855    0.19011    1.000
    Si5644   Si       0.76624    0.86985    0.29109    1.000
    Si5645   Si       0.84160    0.87964    0.29168    1.000
    N5646    N        0.75216    0.83852    0.31590    1.000
    N5647    N        0.86181    0.85611    0.32145    1.000
    N5648    N        0.83772    0.85652    0.25366    1.000
    N5649    N        0.75824    0.87201    0.25054    1.000
    N5650    N        0.80308    0.88612    0.30808    1.000
    Si5651   Si       0.86406    0.86996    0.36335    1.000
    N5652    N        0.93855    0.86331    0.29269    1.000
    N5653    N        0.99106    0.88911    0.34547    1.000
    Si5654   Si       0.96796    0.83412    0.28331    1.000
    Si5655   Si       0.84080    0.88144    0.47113    1.000
    N5656    N        0.76603    0.86172    0.42755    1.000
    N5657    N        0.83106    0.85959    0.38999    1.000
    Si5658   Si       0.79848    0.88083    0.40772    1.000
    N5659    N        0.85453    0.84353    0.45284    1.000
    Si5660   Si       0.75081    0.82882    0.39958    1.000
    N5661    N        0.93658    0.89028    0.39196    1.000
    N5662    N        0.93297    0.87444    0.46054    1.000
    Si5663   Si       0.97675    0.87854    0.45373    1.000
    Si5664   Si       0.91075    0.87463    0.42309    1.000
    Si5665   Si       0.97345    0.87007    0.37942    1.000
    N5666    N        0.89017    0.84782    0.39290    1.000
    Si5667   Si       0.91012    0.87233    0.49892    1.000
    Si5668   Si       0.83542    0.84393    0.58873    1.000
    N5669    N        0.81210    0.87346    0.50377    1.000
    N5670    N        0.75349    0.83558    0.51880    1.000
    Si5671   Si       0.79600    0.83317    0.52266    1.000
    Si5672   Si       0.74204    0.87738    0.52181    1.000
    N5673    N        0.84117    0.88381    0.56748    1.000
    Si5674   Si       0.96597    0.85028    0.54353    1.000
    N5675    N        0.93850    0.88150    0.53123    1.000
    Si5676   Si       0.91064    0.84209    0.59642    1.000
    N5677    N        0.90100    0.88360    0.60327    1.000
    N5678    N        0.95041    0.83645    0.58154    1.000
    N5679    N        0.83373    0.86003    0.62938    1.000
    Si5680   Si       0.80791    0.84952    0.71439    1.000
    N5681    N        0.76783    0.83709    0.64075    1.000
    N5682    N        0.77109    0.82958    0.72261    1.000
    N5683    N        0.91711    0.85250    0.71867    1.000
    Si5684   Si       0.81681    0.86466    0.79006    1.000
    N5685    N        0.77359    0.87389    0.77796    1.000
    N5686    N        0.80706    0.84292    0.82631    1.000
    Si5687   Si       0.79540    0.85865    0.86448    1.000
    Si5688   Si       0.75348    0.84060    0.76111    1.000
    N5689    N        0.76090    0.88531    0.85961    1.000
    N5690    N        0.82755    0.84083    0.75179    1.000
    N5691    N        0.86991    0.85888    0.80139    1.000
    N5692    N        0.93667    0.84011    0.81201    1.000
    Si5693   Si       0.94136    0.88385    0.81882    1.000
    Si5694   Si       0.84712    0.87080    0.97721    1.000
    N5695    N        0.76452    0.87777    0.92956    1.000
    N5696    N        0.82378    0.87899    0.89129    1.000
    Si5697   Si       0.85967    0.86277    0.90939    1.000
    Si5698   Si       0.75883    0.83565    0.92143    1.000
    Si5699   Si       0.78073    0.83788    0.99719    1.000
    N5700    N        0.75899    0.87735    0.99740    1.000
    N5701    N        0.95017    0.84638    0.90309    1.000
    N5702    N        0.86378    0.84274    0.94800    1.000
    Si5703   Si       0.97905    0.87411    0.92017    1.000
    N5704    N        0.88306    0.83873    0.87814    1.000
    Si5705   Si       0.91504    0.86597    0.88692    1.000
    N5706    N        0.83476    0.92427    0.06203    1.000
    N5707    N        0.75640    0.94332    0.09720    1.000
    N5708    N        0.88246    0.91273    0.09959    1.000
    N5709    N        0.94479    0.89991    0.01080    1.000
    Si5710   Si       0.88790    0.93758    0.00411    1.000
    N5711    N        0.94968    0.92866    0.10768    1.000
    N5712    N        0.87964    0.89436    0.99534    1.000
    Si5713   Si       0.82017    0.94234    0.18710    1.000
    N5714    N        0.79251    0.92007    0.16013    1.000
    N5715    N        0.84714    0.92029    0.21335    1.000
    Si5716   Si       0.75463    0.93354    0.14177    1.000
    Si5717   Si       0.87719    0.93380    0.24340    1.000
    Si5718   Si       0.91607    0.91073    0.12556    1.000
    N5719    N        0.90473    0.89706    0.23637    1.000
    N5720    N        0.90354    0.92391    0.16501    1.000
    N5721    N        0.96684    0.91137    0.24670    1.000
    Si5722   Si       0.78028    0.91375    0.33464    1.000
    N5723    N        0.86209    0.91730    0.28372    1.000
    N5724    N        0.74316    0.90723    0.30991    1.000
    Si5725   Si       0.93303    0.89961    0.27169    1.000
    N5726    N        0.88001    0.90933    0.35515    1.000
    Si5727   Si       0.88358    0.93112    0.31885    1.000
    N5728    N        0.92392    0.92966    0.30166    1.000
    N5729    N        0.74359    0.90230    0.48631    1.000
    N5730    N        0.82304    0.90422    0.43859    1.000
    Si5731   Si       0.85223    0.93616    0.43303    1.000
    N5732    N        0.78497    0.90812    0.37695    1.000
    N5733    N        0.87482    0.89741    0.49496    1.000
    Si5734   Si       0.90918    0.92278    0.38572    1.000
    N5735    N        0.88524    0.91204    0.42045    1.000
    Si5736   Si       0.81468    0.90017    0.53756    1.000
    Si5737   Si       0.74883    0.92978    0.56584    1.000
    N5738    N        0.77191    0.90265    0.54246    1.000
    N5739    N        0.83292    0.94083    0.53278    1.000
    N5740    N        0.86293    0.93167    0.61947    1.000
    Si5741   Si       0.74916    0.94378    0.49709    1.000
    Si5742   Si       0.87030    0.93917    0.50850    1.000
    Si5743   Si       0.87522    0.90755    0.57949    1.000
    Si5744   Si       0.94065    0.92291    0.54190    1.000
    N5745    N        0.96772    0.93397    0.57255    1.000
    N5746    N        0.89873    0.93277    0.55491    1.000
    N5747    N        0.81073    0.89390    0.71049    1.000
    Si5748   Si       0.78151    0.91393    0.68512    1.000
    N5749    N        0.80004    0.91987    0.64619    1.000
    Si5750   Si       0.83293    0.91562    0.74007    1.000
    Si5751   Si       0.83968    0.90108    0.64573    1.000
    N5752    N        0.74626    0.88957    0.68660    1.000
    Si5753   Si       0.95506    0.94061    0.67111    1.000
    N5754    N        0.93697    0.91444    0.70025    1.000
    N5755    N        0.87481    0.90408    0.73899    1.000
    Si5756   Si       0.90148    0.91117    0.63575    1.000
    N5757    N        0.87837    0.89599    0.66900    1.000
    N5758    N        0.93496    0.93653    0.63298    1.000
    Si5759   Si       0.97770    0.90341    0.71487    1.000
    Si5760   Si       0.90016    0.88941    0.70539    1.000
    N5761    N        0.83097    0.90651    0.78280    1.000
    Si5762   Si       0.76012    0.92761    0.86121    1.000
    N5763    N        0.76287    0.93794    0.81675    1.000
    Si5764   Si       0.74853    0.90664    0.78916    1.000
    N5765    N        0.91559    0.90661    0.79177    1.000
    Si5766   Si       0.91256    0.93891    0.85744    1.000
    N5767    N        0.92625    0.89732    0.85766    1.000
    Si5768   Si       0.87516    0.89580    0.78194    1.000
    N5769    N        0.98383    0.89019    0.82272    1.000
    Si5770   Si       0.83232    0.94361    0.96021    1.000
    Si5771   Si       0.79924    0.90191    0.91859    1.000
    N5772    N        0.79119    0.93629    0.89204    1.000
    N5773    N        0.82393    0.90145    0.95393    1.000
    Si5774   Si       0.74129    0.89483    0.96282    1.000
    Si5775   Si       0.96448    0.92128    0.97730    1.000
    N5776    N        0.95148    0.90568    0.93856    1.000
    Si5777   Si       0.90779    0.92894    0.93226    1.000
    N5778    N        0.89245    0.89053    0.91486    1.000
    N5779    N        0.91750    0.94965    0.97275    1.000
    N5780    N        0.84040    0.98387    0.07961    1.000
    Si5781   Si       0.76387    0.98048    0.07975    1.000
    Si5782   Si       0.82496    0.96270    0.03932    1.000
    N5783    N        0.78130    0.96347    0.03973    1.000
    N5784    N        0.78293    0.99479    0.11813    1.000
    Si5785   Si       0.75027    0.95094    0.01078    1.000
    N5786    N        0.84762    0.95126    0.00030    1.000
    Si5787   Si       0.91536    0.99649    0.04460    1.000
    N5788    N        0.89574    0.97581    0.11638    1.000
    N5789    N        0.89650    0.95641    0.04371    1.000
    N5790    N        0.94707    0.00128    0.07581    1.000
    Si5791   Si       0.92832    0.00348    0.11490    1.000
    Si5792   Si       0.87461    0.95129    0.08316    1.000
    Si5793   Si       0.98865    0.00637    0.06553    1.000
    Si5794   Si       0.82575    0.99339    0.12499    1.000
    N5795    N        0.74671    0.96714    0.16747    1.000
    Si5796   Si       0.74651    0.00056    0.13892    1.000
    Si5797   Si       0.75589    0.96692    0.21065    1.000
    N5798    N        0.83875    0.96442    0.15529    1.000
    N5799    N        0.79947    0.96785    0.21656    1.000
    N5800    N        0.74134    0.00440    0.22513    1.000
    Si5801   Si       0.81874    0.99367    0.24587    1.000
    N5802    N        0.89905    0.99756    0.17357    1.000
    N5803    N        0.96971    0.97496    0.20525    1.000
    N5804    N        0.91164    0.96083    0.24172    1.000
    Si5805   Si       0.88289    0.96141    0.15680    1.000
    N5806    N        0.95975    0.00151    0.14433    1.000
    Si5807   Si       0.95522    0.95285    0.24086    1.000
    Si5808   Si       0.94059    0.00074    0.18487    1.000
    Si5809   Si       0.77471    0.98711    0.31440    1.000
    N5810    N        0.85767    0.98536    0.26425    1.000
    Si5811   Si       0.84487    0.99780    0.30512    1.000
    N5812    N        0.79403    0.95404    0.33736    1.000
    N5813    N        0.74646    0.97419    0.28597    1.000
    N5814    N        0.86427    0.96804    0.33381    1.000
    N5815    N        0.80439    0.00685    0.28957    1.000
    N5816    N        0.75241    0.00816    0.34799    1.000
    N5817    N        0.91823    0.99828    0.30564    1.000
    N5818    N        0.97248    0.97334    0.27625    1.000
    Si5819   Si       0.90041    0.99491    0.26615    1.000
    Si5820   Si       0.94604    0.96551    0.30876    1.000
    N5821    N        0.97173    0.96168    0.34399    1.000
    N5822    N        0.76524    0.96993    0.40510    1.000
    Si5823   Si       0.75420    0.00069    0.48304    1.000
    N5824    N        0.83953    0.95816    0.39662    1.000
    N5825    N        0.85929    0.95597    0.46894    1.000
    Si5826   Si       0.79847    0.95006    0.38330    1.000
    Si5827   Si       0.87135    0.97997    0.37467    1.000
    Si5828   Si       0.87307    0.99745    0.47276    1.000
    N5829    N        0.91552    0.96450    0.38198    1.000
    Si5830   Si       0.95328    0.98865    0.37454    1.000
    Si5831   Si       0.80184    0.97158    0.54341    1.000
    N5832    N        0.78185    0.97178    0.50308    1.000
    N5833    N        0.85619    0.99305    0.58314    1.000
    N5834    N        0.78380    0.95398    0.58043    1.000
    N5835    N        0.92592    0.98896    0.58482    1.000
    N5836    N        0.89044    0.98153    0.51852    1.000
    Si5837   Si       0.89073    0.97792    0.56097    1.000
    Si5838   Si       0.95666    0.96046    0.60354    1.000
    Si5839   Si       0.93216    0.98921    0.50366    1.000
    N5840    N        0.95022    0.94939    0.50689    1.000
    Si5841   Si       0.85694    0.97485    0.62575    1.000
    Si5842   Si       0.78746    0.95562    0.62499    1.000
    N5843    N        0.81636    0.98702    0.63664    1.000
    Si5844   Si       0.75117    0.98767    0.67745    1.000
    N5845    N        0.74873    0.97027    0.63911    1.000
    N5846    N        0.83021    0.95886    0.73733    1.000
    Si5847   Si       0.78952    0.97021    0.73428    1.000
    N5848    N        0.77374    0.95604    0.69731    1.000
    N5849    N        0.88726    0.99761    0.71794    1.000
    N5850    N        0.88606    0.00142    0.64525    1.000
    Si5851   Si       0.98451    0.00558    0.65716    1.000
    N5852    N        0.95447    0.98178    0.68493    1.000
    Si5853   Si       0.92941    0.99021    0.71968    1.000
    Si5854   Si       0.77405    0.97691    0.80240    1.000
    N5855    N        0.81564    0.98577    0.80611    1.000
    N5856    N        0.75926    0.98506    0.76083    1.000
    Si5857   Si       0.85669    0.97895    0.82158    1.000
    N5858    N        0.75701    0.00639    0.83022    1.000
    Si5859   Si       0.85919    0.98818    0.75110    1.000
    N5860    N        0.87165    0.95573    0.85559    1.000
    N5861    N        0.94228    0.96514    0.75694    1.000
    N5862    N        0.88035    0.97114    0.78716    1.000
    Si5863   Si       0.97200    0.98446    0.83865    1.000
    N5864    N        0.93693    0.96040    0.82737    1.000
    Si5865   Si       0.97037    0.99762    0.76669    1.000
    Si5866   Si       0.91907    0.95103    0.78940    1.000
    Si5867   Si       0.79343    0.97605    0.90880    1.000
    N5868    N        0.75443    0.99501    0.91351    1.000
    N5869    N        0.82672    0.99592    0.89310    1.000
    Si5870   Si       0.74777    0.97828    0.95319    1.000
    N5871    N        0.79565    0.96420    0.95124    1.000
    N5872    N        0.86471    0.95409    0.93256    1.000
    Si5873   Si       0.86616    0.97468    0.89340    1.000
    N5874    N        0.75015    0.99211    0.99476    1.000
    N5875    N        0.95381    0.00507    0.93686    1.000
    N5876    N        0.92099    0.95430    0.89785    1.000
    N5877    N        0.98235    0.96369    0.97621    1.000
    Si5878   Si       0.94213    0.98334    0.97349    1.000
    Si5879   Si       0.93057    0.99594    0.89999    1.000
