# CIF file generated by openbabel 3.1.1, see https://openbabel.org
data_I
_chemical_name_common '3.01-29.aims'
_cell_length_a 39.9299
_cell_length_b 39.9299
_cell_length_c 39.9299
_cell_angle_alpha 90
_cell_angle_beta 90
_cell_angle_gamma 90
loop_
    _atom_site_label
    _atom_site_type_symbol
    _atom_site_fract_x
    _atom_site_fract_y
    _atom_site_fract_z
    _atom_site_occupancy
    N0       N        0.01588    0.10732    0.02303    1.000
    Si1      Si       0.02702    0.12142    0.06354    1.000
    N2       N        0.99182    0.12113    0.08792    1.000
    N3       N        0.01132    0.01637    0.11637    1.000
    N4       N        0.01888    0.22324    0.08793    1.000
    N5       N        0.00169    0.20821    0.02713    1.000
    Si6      Si       0.03803    0.18571    0.09777    1.000
    N7       N        0.03900    0.16381    0.06094    1.000
    Si8      Si       0.04396    0.19299    0.02792    1.000
    N9       N        0.03457    0.07386    0.13687    1.000
    Si10     Si       0.99798    0.05010    0.13925    1.000
    N11      N        0.02738    0.05934    0.24079    1.000
    Si12     Si       0.99328    0.06000    0.21154    1.000
    Si13     Si       0.02340    0.12844    0.20781    1.000
    N14      N        0.99337    0.09998    0.19706    1.000
    Si15     Si       0.00828    0.19329    0.17007    1.000
    N16      N        0.00591    0.17027    0.20688    1.000
    N17      N        0.01838    0.17121    0.13358    1.000
    N18      N        0.01358    0.23671    0.17833    1.000
    Si19     Si       0.02093    0.09060    0.27178    1.000
    Si20     Si       0.01767    0.04576    0.32077    1.000
    N21      N        0.04096    0.07843    0.30682    1.000
    N22      N        0.03669    0.12403    0.24908    1.000
    N23      N        0.03282    0.01140    0.34194    1.000
    N24      N        0.02550    0.13180    0.34253    1.000
    N25      N        0.99232    0.02198    0.29577    1.000
    Si26     Si       0.04206    0.22180    0.27193    1.000
    Si27     Si       0.02108    0.17199    0.35932    1.000
    N28      N        0.00326    0.23047    0.28825    1.000
    N29      N        0.02061    0.00381    0.40825    1.000
    N30      N        0.03062    0.06844    0.40043    1.000
    Si31     Si       0.99711    0.03926    0.38748    1.000
    N32      N        0.00245    0.11019    0.44777    1.000
    N33      N        0.01901    0.03811    0.46724    1.000
    Si34     Si       0.00988    0.06857    0.43822    1.000
    N35      N        0.01922    0.19621    0.47181    1.000
    Si36     Si       0.02336    0.20162    0.42908    1.000
    N37      N        0.01439    0.16782    0.40159    1.000
    N38      N        0.01626    0.02418    0.54623    1.000
    N39      N        0.02902    0.02306    0.60878    1.000
    Si40     Si       0.00007    0.03271    0.50619    1.000
    N41      N        0.04491    0.10550    0.50390    1.000
    Si42     Si       0.99326    0.02875    0.58350    1.000
    N43      N        0.99981    0.13691    0.57589    1.000
    Si44     Si       0.00447    0.10592    0.49229    1.000
    Si45     Si       0.04084    0.23188    0.57077    1.000
    N46      N        0.00942    0.20165    0.57890    1.000
    N47      N        0.02832    0.23843    0.52733    1.000
    Si48     Si       0.03193    0.16496    0.57078    1.000
    Si49     Si       0.04279    0.20314    0.50558    1.000
    N50      N        0.04276    0.25544    0.60638    1.000
    N51      N        0.04157    0.06068    0.66758    1.000
    N52      N        0.00830    0.12109    0.64819    1.000
    Si53     Si       0.01365    0.03368    0.65121    1.000
    N54      N        0.02591    0.02756    0.73617    1.000
    Si55     Si       0.04403    0.09773    0.64551    1.000
    Si56     Si       0.00631    0.16047    0.74659    1.000
    N57      N        0.03481    0.25138    0.68172    1.000
    Si58     Si       0.00212    0.15087    0.67873    1.000
    Si59     Si       0.99172    0.23490    0.74542    1.000
    Si60     Si       0.04279    0.21092    0.69654    1.000
    N61      N        0.03158    0.18316    0.66550    1.000
    N62      N        0.01251    0.20043    0.72975    1.000
    N63      N        0.02546    0.13769    0.71491    1.000
    N64      N        0.01119    0.09100    0.83636    1.000
    Si65     Si       0.02524    0.10708    0.79594    1.000
    N66      N        0.01629    0.01935    0.79759    1.000
    Si67     Si       0.99544    0.03976    0.76467    1.000
    Si68     Si       0.02795    0.11587    0.86576    1.000
    N69      N        0.99773    0.08367    0.76909    1.000
    N70      N        0.01711    0.15869    0.85463    1.000
    N71      N        0.02088    0.14945    0.78639    1.000
    Si72     Si       0.01114    0.24493    0.80213    1.000
    Si73     Si       0.03788    0.17462    0.81844    1.000
    N74      N        0.04085    0.21834    0.81538    1.000
    Si75     Si       0.03232    0.06980    0.92380    1.000
    N76      N        0.01390    0.10430    0.90448    1.000
    N77      N        0.00979    0.03105    0.92162    1.000
    N78      N        0.03212    0.07556    0.96564    1.000
    Si79     Si       0.03604    0.03329    0.97804    1.000
    N80      N        0.00213    0.00759    0.98265    1.000
    Si81     Si       0.99215    0.13613    0.92781    1.000
    N82      N        0.02055    0.24710    0.93221    1.000
    N83      N        0.01979    0.16971    0.93112    1.000
    Si84     Si       0.99828    0.20850    0.92824    1.000
    Si85     Si       0.01949    0.32495    0.05829    1.000
    N86      N        0.00807    0.33265    0.01689    1.000
    N87      N        0.04049    0.36437    0.07100    1.000
    N88      N        0.04273    0.28790    0.05849    1.000
    Si89     Si       0.03979    0.26083    0.09352    1.000
    Si90     Si       0.01971    0.38879    0.10471    1.000
    N91      N        0.99714    0.46551    0.02823    1.000
    N92      N        0.01873    0.43256    0.10641    1.000
    Si93     Si       0.03505    0.45340    0.01224    1.000
    N94      N        0.00883    0.39700    0.00397    1.000
    Si95     Si       0.04300    0.38096    0.02841    1.000
    N96      N        0.01181    0.28101    0.11907    1.000
    Si97     Si       0.02186    0.27553    0.15899    1.000
    Si98     Si       0.01142    0.31148    0.22170    1.000
    N99      N        0.99849    0.30349    0.18268    1.000
    N100     N        0.03506    0.37978    0.14276    1.000
    N101     N        0.99247    0.27659    0.23992    1.000
    N102     N        0.99089    0.34758    0.23545    1.000
    Si103    Si       0.98937    0.49918    0.15740    1.000
    N104     N        0.99673    0.50027    0.20110    1.000
    N105     N        0.02901    0.49614    0.13799    1.000
    Si106    Si       0.03268    0.47568    0.20688    1.000
    N107     N        0.03760    0.44422    0.17480    1.000
    Si108    Si       0.04370    0.45516    0.13334    1.000
    N109     N        0.03671    0.45741    0.24578    1.000
    Si110    Si       0.01285    0.33495    0.31645    1.000
    N111     N        0.02696    0.29646    0.30081    1.000
    N112     N        0.02943    0.33529    0.35665    1.000
    N113     N        0.04022    0.36417    0.29050    1.000
    Si114    Si       0.01949    0.37631    0.25095    1.000
    Si115    Si       0.99520    0.27286    0.28196    1.000
    N116     N        0.99320    0.40989    0.25885    1.000
    Si117    Si       0.01053    0.44655    0.27824    1.000
    N118     N        0.02119    0.43093    0.31713    1.000
    Si119    Si       0.00519    0.46557    0.33930    1.000
    N120     N        0.02965    0.49726    0.35163    1.000
    N121     N        0.99756    0.48352    0.29725    1.000
    Si122    Si       0.04007    0.31119    0.44742    1.000
    Si123    Si       0.03285    0.30153    0.38435    1.000
    N124     N        0.01209    0.29042    0.41972    1.000
    N125     N        0.01954    0.34710    0.46052    1.000
    N126     N        0.99866    0.41459    0.44458    1.000
    N127     N        0.01818    0.45941    0.48679    1.000
    Si128    Si       0.04064    0.42029    0.43445    1.000
    N129     N        0.02339    0.32356    0.58182    1.000
    N130     N        0.02125    0.30822    0.51644    1.000
    Si131    Si       0.03611    0.34786    0.50248    1.000
    Si132    Si       0.99464    0.30863    0.55029    1.000
    Si133    Si       0.00234    0.32815    0.62033    1.000
    N134     N        0.01501    0.38169    0.51788    1.000
    Si135    Si       0.04907    0.27416    0.51066    1.000
    Si136    Si       0.00396    0.47717    0.58825    1.000
    Si137    Si       0.03321    0.42042    0.50420    1.000
    N138     N        0.04235    0.45546    0.59198    1.000
    Si139    Si       0.04249    0.27190    0.64432    1.000
    Si140    Si       0.99989    0.28066    0.68846    1.000
    N141     N        0.00442    0.29418    0.64610    1.000
    N142     N        0.00120    0.31893    0.70956    1.000
    N143     N        0.02869    0.35646    0.64320    1.000
    Si144    Si       0.01636    0.35137    0.68528    1.000
    N145     N        0.04698    0.44487    0.71259    1.000
    N146     N        0.02974    0.48437    0.65704    1.000
    Si147    Si       0.01367    0.46272    0.69220    1.000
    N148     N        0.99720    0.49578    0.71496    1.000
    Si149    Si       0.01663    0.31047    0.84573    1.000
    Si150    Si       0.02915    0.34981    0.78004    1.000
    N151     N        0.01032    0.26997    0.83498    1.000
    N152     N        0.04278    0.32956    0.81905    1.000
    N153     N        0.02194    0.26219    0.75962    1.000
    N154     N        0.03739    0.39222    0.77520    1.000
    N155     N        0.03083    0.46226    0.77649    1.000
    Si156    Si       0.01048    0.42451    0.77160    1.000
    Si157    Si       0.01484    0.50591    0.75382    1.000
    Si158    Si       0.04836    0.48044    0.81299    1.000
    Si159    Si       0.00924    0.29497    0.99431    1.000
    Si160    Si       0.99389    0.34900    0.94368    1.000
    N161     N        0.00560    0.30791    0.95521    1.000
    Si162    Si       0.00729    0.28594    0.91673    1.000
    N163     N        0.03005    0.31095    0.88826    1.000
    N164     N        0.02686    0.38044    0.93913    1.000
    N165     N        0.04469    0.26937    0.99376    1.000
    N166     N        0.03050    0.45174    0.96883    1.000
    N167     N        0.00087    0.40493    0.87472    1.000
    Si168    Si       0.03572    0.39620    0.89734    1.000
    Si169    Si       0.00937    0.48964    0.96092    1.000
    Si170    Si       0.00954    0.41313    0.96339    1.000
    N171     N        0.03662    0.49655    0.92421    1.000
    N172     N        0.00582    0.53907    0.05300    1.000
    Si173    Si       0.01825    0.57099    0.08223    1.000
    N174     N        0.02959    0.60647    0.05090    1.000
    Si175    Si       0.03631    0.52237    0.02740    1.000
    N176     N        0.00832    0.70039    0.02528    1.000
    N177     N        0.02930    0.73577    0.08595    1.000
    Si178    Si       0.03971    0.71009    0.05280    1.000
    N179     N        0.04382    0.61878    0.19525    1.000
    N180     N        0.03341    0.55437    0.17444    1.000
    Si181    Si       0.99420    0.56680    0.16604    1.000
    N182     N        0.98935    0.60674    0.14908    1.000
    Si183    Si       0.02990    0.63407    0.23195    1.000
    Si184    Si       0.02244    0.63375    0.15977    1.000
    N185     N        0.04239    0.73114    0.19615    1.000
    N186     N        0.99549    0.73565    0.14287    1.000
    Si187    Si       0.03267    0.71177    0.23648    1.000
    N188     N        0.00221    0.67090    0.16824    1.000
    Si189    Si       0.02324    0.70831    0.16424    1.000
    N190     N        0.98763    0.70672    0.24418    1.000
    Si191    Si       0.01739    0.57453    0.27906    1.000
    N192     N        0.03838    0.55302    0.30962    1.000
    N193     N        0.03997    0.60792    0.26381    1.000
    N194     N        0.02244    0.54369    0.24678    1.000
    Si195    Si       0.03171    0.51069    0.30954    1.000
    Si196    Si       0.99836    0.68473    0.32947    1.000
    N197     N        0.03976    0.69601    0.33893    1.000
    Si198    Si       0.99991    0.59297    0.44110    1.000
    N199     N        0.00545    0.60471    0.48284    1.000
    N200     N        0.03242    0.51859    0.46070    1.000
    N201     N        0.03941    0.58253    0.42580    1.000
    Si202    Si       0.04452    0.62027    0.49017    1.000
    Si203    Si       0.98619    0.51809    0.45890    1.000
    Si204    Si       0.99440    0.63421    0.38214    1.000
    N205     N        0.99585    0.67567    0.48971    1.000
    Si206    Si       0.03465    0.69125    0.47453    1.000
    N207     N        0.03721    0.63198    0.37138    1.000
    N208     N        0.02203    0.72323    0.44825    1.000
    Si209    Si       0.04722    0.75123    0.42631    1.000
    N210     N        0.01199    0.55027    0.52555    1.000
    Si211    Si       0.03109    0.56101    0.59539    1.000
    N212     N        0.01172    0.51933    0.59742    1.000
    N213     N        0.99365    0.58293    0.60623    1.000
    N214     N        0.03887    0.63535    0.53035    1.000
    Si215    Si       0.99676    0.64459    0.52635    1.000
    N216     N        0.99489    0.74605    0.52817    1.000
    Si217    Si       0.03880    0.75385    0.52337    1.000
    N218     N        0.99984    0.66148    0.61861    1.000
    Si219    Si       0.04277    0.66754    0.61937    1.000
    Si220    Si       0.01708    0.52376    0.64112    1.000
    N221     N        0.05003    0.55173    0.63432    1.000
    Si222    Si       0.01537    0.71001    0.72375    1.000
    N223     N        0.02001    0.67029    0.73985    1.000
    N224     N        0.99609    0.74585    0.63514    1.000
    Si225    Si       0.03184    0.73183    0.65332    1.000
    N226     N        0.02889    0.70300    0.68437    1.000
    N227     N        0.00867    0.63953    0.68701    1.000
    Si228    Si       0.04350    0.66340    0.69470    1.000
    Si229    Si       0.98970    0.64198    0.72514    1.000
    Si230    Si       0.03603    0.55136    0.83543    1.000
    Si231    Si       0.01120    0.58860    0.78121    1.000
    N232     N        0.00251    0.57631    0.82174    1.000
    N233     N        0.02482    0.55028    0.76417    1.000
    N234     N        0.04319    0.61839    0.78669    1.000
    N235     N        0.02320    0.50885    0.83280    1.000
    N236     N        0.02891    0.68443    0.81254    1.000
    Si237    Si       0.03991    0.65978    0.77802    1.000
    N238     N        0.02613    0.73865    0.75487    1.000
    Si239    Si       0.98909    0.68817    0.83086    1.000
    N240     N        0.03055    0.55943    0.93364    1.000
    Si241    Si       0.00757    0.55950    0.96952    1.000
    Si242    Si       0.02958    0.58982    0.90321    1.000
    N243     N        0.01673    0.52136    0.98845    1.000
    N244     N        0.01321    0.59708    0.98864    1.000
    Si245    Si       0.99077    0.63233    0.98011    1.000
    Si246    Si       0.01356    0.69928    0.98235    1.000
    N247     N        0.03892    0.68907    0.90667    1.000
    N248     N        0.01070    0.66292    0.95832    1.000
    Si249    Si       0.99308    0.68570    0.90609    1.000
    N250     N        0.99641    0.73820    0.97033    1.000
    N251     N        0.02110    0.79819    0.04779    1.000
    Si252    Si       0.04021    0.81116    0.08484    1.000
    N253     N        0.00957    0.79678    0.11194    1.000
    N254     N        0.04322    0.85534    0.08937    1.000
    Si255    Si       0.04773    0.78310    0.01582    1.000
    Si256    Si       0.99586    0.75731    0.10440    1.000
    Si257    Si       0.00156    0.97703    0.01545    1.000
    N258     N        0.03170    0.94546    0.00976    1.000
    N259     N        0.01697    0.99885    0.05145    1.000
    Si260    Si       0.98826    0.00183    0.08302    1.000
    Si261    Si       0.02064    0.83163    0.18784    1.000
    N262     N        0.02763    0.85696    0.22196    1.000
    N263     N        0.02786    0.84927    0.14952    1.000
    N264     N        0.05280    0.80322    0.20038    1.000
    Si265    Si       0.99138    0.82941    0.13479    1.000
    N266     N        0.00142    0.91235    0.12369    1.000
    N267     N        0.99353    0.99547    0.23310    1.000
    N268     N        0.04512    0.90567    0.17119    1.000
    N269     N        0.02098    0.93117    0.22900    1.000
    Si270    Si       0.01042    0.95394    0.12267    1.000
    Si271    Si       0.03708    0.88625    0.12873    1.000
    N272     N        0.00170    0.96344    0.16777    1.000
    Si273    Si       0.00977    0.92633    0.18681    1.000
    Si274    Si       0.02876    0.97240    0.24600    1.000
    Si275    Si       0.02118    0.86437    0.31586    1.000
    N276     N        0.03809    0.80574    0.26857    1.000
    Si277    Si       0.99536    0.80774    0.27075    1.000
    Si278    Si       0.04014    0.76574    0.28633    1.000
    N279     N        0.99146    0.83184    0.30677    1.000
    N280     N        0.04623    0.76929    0.32908    1.000
    N281     N        0.99356    0.76444    0.27965    1.000
    N282     N        0.99702    0.89095    0.34208    1.000
    N283     N        0.03182    0.89211    0.28356    1.000
    N284     N        0.03198    0.96462    0.28894    1.000
    Si285    Si       0.00703    0.98568    0.31540    1.000
    Si286    Si       0.01336    0.89155    0.24469    1.000
    N287     N        0.00059    0.94679    0.37289    1.000
    Si288    Si       0.99784    0.80235    0.41217    1.000
    N289     N        0.99837    0.82566    0.37684    1.000
    N290     N        0.03347    0.79359    0.43335    1.000
    Si291    Si       0.00716    0.87087    0.38041    1.000
    N292     N        0.01074    0.88160    0.45435    1.000
    N293     N        0.04291    0.89024    0.39538    1.000
    Si294    Si       0.03721    0.00140    0.44903    1.000
    N295     N        0.02162    0.96621    0.46556    1.000
    Si296    Si       0.99924    0.90418    0.49164    1.000
    Si297    Si       0.03953    0.92956    0.37320    1.000
    Si298    Si       0.03472    0.84701    0.58043    1.000
    N299     N        0.99147    0.83980    0.57784    1.000
    Si300    Si       0.00486    0.95767    0.59649    1.000
    N301     N        0.03113    0.91987    0.51412    1.000
    Si302    Si       0.03151    0.92035    0.55742    1.000
    N303     N        0.04110    0.96109    0.57212    1.000
    N304     N        0.99141    0.92045    0.57443    1.000
    N305     N        0.03274    0.84804    0.62561    1.000
    Si306    Si       0.01390    0.86103    0.69933    1.000
    N307     N        0.00331    0.78506    0.71343    1.000
    Si308    Si       0.04527    0.79172    0.70634    1.000
    N309     N        0.04648    0.83379    0.68911    1.000
    N310     N        0.01418    0.88144    0.74374    1.000
    Si311    Si       0.03165    0.98660    0.72164    1.000
    N312     N        0.02184    0.99862    0.67776    1.000
    Si313    Si       0.04418    0.96705    0.66142    1.000
    Si314    Si       0.01864    0.92343    0.71934    1.000
    N315     N        0.01386    0.94749    0.63706    1.000
    N316     N        0.00356    0.90212    0.68455    1.000
    N317     N        0.99948    0.96008    0.73448    1.000
    N318     N        0.03127    0.85547    0.81252    1.000
    Si319    Si       0.04454    0.87834    0.77474    1.000
    N320     N        0.01156    0.91705    0.85132    1.000
    Si321    Si       0.00338    0.92996    0.81096    1.000
    N322     N        0.01499    0.99431    0.85914    1.000
    N323     N        0.04092    0.91917    0.79160    1.000
    Si324    Si       0.00685    0.75570    0.93381    1.000
    N325     N        0.00119    0.78834    0.87690    1.000
    N326     N        0.00216    0.85377    0.91950    1.000
    N327     N        0.02881    0.80686    0.98457    1.000
    Si328    Si       0.04265    0.86993    0.92309    1.000
    Si329    Si       0.04343    0.78073    0.88257    1.000
    Si330    Si       0.04385    0.92658    0.88016    1.000
    Si331    Si       0.00046    0.93825    0.93935    1.000
    Si332    Si       0.01179    0.99291    0.90154    1.000
    N333     N        0.02690    0.90438    0.95074    1.000
    N334     N        0.03681    0.95757    0.91148    1.000
    N335     N        0.06446    0.11144    0.08679    1.000
    Si336    Si       0.06719    0.07332    0.10660    1.000
    N337     N        0.06566    0.03490    0.08546    1.000
    Si338    Si       0.05509    0.02086    0.04720    1.000
    N339     N        0.08758    0.10920    0.00421    1.000
    N340     N        0.05383    0.04969    0.01568    1.000
    Si341    Si       0.04929    0.08941    0.00291    1.000
    N342     N        0.07822    0.25368    0.11466    1.000
    N343     N        0.07164    0.22339    0.04052    1.000
    N344     N        0.08006    0.18022    0.10593    1.000
    Si345    Si       0.09109    0.14466    0.08037    1.000
    Si346    Si       0.09479    0.15216    0.00582    1.000
    Si347    Si       0.10015    0.21613    0.11997    1.000
    N348     N        0.10473    0.16647    0.04434    1.000
    N349     N        0.08591    0.00687    0.14788    1.000
    N350     N        0.05874    0.12249    0.18450    1.000
    Si351    Si       0.06671    0.04028    0.23359    1.000
    Si352    Si       0.06568    0.08529    0.16576    1.000
    N353     N        0.09948    0.08008    0.13787    1.000
    N354     N        0.07694    0.05445    0.19359    1.000
    Si355    Si       0.05852    0.23529    0.19186    1.000
    N356     N        0.09938    0.15398    0.23034    1.000
    N357     N        0.05886    0.23943    0.23577    1.000
    Si358    Si       0.08438    0.15776    0.18811    1.000
    N359     N        0.06389    0.19487    0.17961    1.000
    N360     N        0.08739    0.09735    0.35869    1.000
    Si361    Si       0.06266    0.11105    0.32671    1.000
    N362     N        0.10261    0.05795    0.25204    1.000
    N363     N        0.09074    0.12912    0.29829    1.000
    Si364    Si       0.07785    0.20165    0.31423    1.000
    Si365    Si       0.07002    0.14719    0.26324    1.000
    N366     N        0.07089    0.24440    0.29714    1.000
    N367     N        0.05584    0.19802    0.35159    1.000
    N368     N        0.05712    0.18351    0.28096    1.000
    Si369    Si       0.09164    0.25609    0.25941    1.000
    N370     N        0.08896    0.08374    0.42987    1.000
    N371     N        0.08539    0.03079    0.39384    1.000
    Si372    Si       0.07221    0.07188    0.39072    1.000
    Si373    Si       0.09869    0.03940    0.43350    1.000
    Si374    Si       0.11073    0.18531    0.47556    1.000
    Si375    Si       0.06977    0.23275    0.37717    1.000
    N376     N        0.09135    0.14711    0.47392    1.000
    Si377    Si       0.08182    0.24240    0.45064    1.000
    N378     N        0.05725    0.22694    0.41798    1.000
    N379     N        0.08567    0.21471    0.49611    1.000
    Si380    Si       0.06572    0.04397    0.60091    1.000
    N381     N        0.08167    0.02343    0.56535    1.000
    Si382    Si       0.08189    0.11542    0.58639    1.000
    N383     N        0.05492    0.08754    0.60410    1.000
    N384     N        0.09853    0.12075    0.54712    1.000
    Si385    Si       0.07471    0.13385    0.51338    1.000
    N386     N        0.06500    0.15684    0.59751    1.000
    N387     N        0.08092    0.21503    0.56429    1.000
    Si388    Si       0.09736    0.18706    0.59228    1.000
    Si389    Si       0.10150    0.23501    0.53184    1.000
    N390     N        0.04642    0.16643    0.52999    1.000
    N391     N        0.08744    0.02312    0.70270    1.000
    N392     N        0.07343    0.08753    0.72245    1.000
    Si393    Si       0.05128    0.05131    0.70855    1.000
    N394     N        0.07188    0.12645    0.66222    1.000
    Si395    Si       0.06687    0.12641    0.70640    1.000
    Si396    Si       0.10195    0.01667    0.66054    1.000
    N397     N        0.10103    0.04464    0.62667    1.000
    N398     N        0.08442    0.19962    0.70135    1.000
    N399     N        0.09742    0.19291    0.63664    1.000
    Si400    Si       0.06322    0.16440    0.64392    1.000
    Si401    Si       0.10941    0.18679    0.73745    1.000
    N402     N        0.10219    0.14540    0.72284    1.000
    N403     N        0.06926    0.10065    0.79387    1.000
    N404     N        0.08626    0.04046    0.76619    1.000
    Si405    Si       0.09227    0.08341    0.76155    1.000
    Si406    Si       0.09137    0.12164    0.82603    1.000
    N407     N        0.07124    0.11344    0.86310    1.000
    Si408    Si       0.05726    0.01412    0.78358    1.000
    N409     N        0.08126    0.16407    0.81779    1.000
    Si410    Si       0.07404    0.24374    0.83098    1.000
    N411     N        0.09139    0.21457    0.76672    1.000
    N412     N        0.07548    0.06911    0.91306    1.000
    Si413    Si       0.08929    0.10730    0.90074    1.000
    Si414    Si       0.10069    0.04205    0.88999    1.000
    N415     N        0.07393    0.00856    0.89016    1.000
    Si416    Si       0.09781    0.00639    0.99110    1.000
    N417     N        0.07584    0.21252    0.93946    1.000
    Si418    Si       0.05885    0.25158    0.95579    1.000
    N419     N        0.08682    0.13947    0.92990    1.000
    N420     N        0.05681    0.16936    0.99231    1.000
    Si421    Si       0.09674    0.23883    0.91007    1.000
    N422     N        0.07143    0.24285    0.87575    1.000
    Si423    Si       0.06259    0.17332    0.94811    1.000
    Si424    Si       0.08203    0.35675    0.08664    1.000
    Si425    Si       0.06889    0.26586    0.02986    1.000
    Si426    Si       0.09691    0.33298    0.01487    1.000
    N427     N        0.06458    0.35558    0.00077    1.000
    N428     N        0.10395    0.29109    0.02387    1.000
    N429     N        0.08372    0.32771    0.11994    1.000
    N430     N        0.09741    0.39016    0.10945    1.000
    N431     N        0.06061    0.42166    0.03109    1.000
    N432     N        0.06177    0.48612    0.03280    1.000
    Si433    Si       0.09069    0.45417    0.04293    1.000
    Si434    Si       0.09139    0.37415    0.21392    1.000
    N435     N        0.06396    0.27693    0.17522    1.000
    Si436    Si       0.08056    0.30599    0.20786    1.000
    Si437    Si       0.08947    0.28783    0.13958    1.000
    Si438    Si       0.10158    0.36456    0.14704    1.000
    N439     N        0.09898    0.33901    0.18794    1.000
    N440     N        0.05095    0.31481    0.23695    1.000
    Si441    Si       0.05084    0.40351    0.17535    1.000
    N442     N        0.08406    0.45580    0.11964    1.000
    N443     N        0.06431    0.50536    0.20645    1.000
    N444     N        0.09529    0.40013    0.17518    1.000
    N445     N        0.04726    0.38337    0.21706    1.000
    N446     N        0.09008    0.31190    0.30692    1.000
    Si447    Si       0.06724    0.33310    0.27401    1.000
    Si448    Si       0.06289    0.28150    0.32016    1.000
    N449     N        0.09639    0.35890    0.25372    1.000
    N450     N        0.05060    0.26968    0.36024    1.000
    N451     N        0.06985    0.39365    0.34807    1.000
    N452     N        0.08501    0.42080    0.28329    1.000
    N453     N        0.06794    0.48907    0.29740    1.000
    Si454    Si       0.07620    0.45916    0.26511    1.000
    N455     N        0.08909    0.46013    0.35807    1.000
    Si456    Si       0.05440    0.40072    0.30842    1.000
    Si457    Si       0.10147    0.48749    0.32544    1.000
    Si458    Si       0.06535    0.35718    0.37498    1.000
    N459     N        0.08213    0.33517    0.46866    1.000
    N460     N        0.06421    0.32147    0.41012    1.000
    Si461    Si       0.08467    0.37578    0.44977    1.000
    N462     N        0.05361    0.27155    0.46834    1.000
    Si463    Si       0.10194    0.31712    0.43210    1.000
    N464     N        0.06421    0.38518    0.41107    1.000
    N465     N        0.08399    0.46674    0.47097    1.000
    Si466    Si       0.09578    0.42913    0.49311    1.000
    N467     N        0.06021    0.40626    0.47135    1.000
    Si468    Si       0.05060    0.48904    0.48737    1.000
    N469     N        0.04790    0.44652    0.40078    1.000
    Si470    Si       0.05924    0.48370    0.38117    1.000
    Si471    Si       0.08055    0.42220    0.37861    1.000
    N472     N        0.07123    0.35206    0.53068    1.000
    N473     N        0.08603    0.27505    0.53501    1.000
    N474     N        0.09335    0.32545    0.58574    1.000
    Si475    Si       0.05918    0.34572    0.57108    1.000
    Si476    Si       0.10414    0.35205    0.50381    1.000
    N477     N        0.05513    0.38675    0.58863    1.000
    N478     N        0.06692    0.43008    0.52829    1.000
    Si479    Si       0.06629    0.42600    0.57104    1.000
    Si480    Si       0.10032    0.32643    0.62974    1.000
    Si481    Si       0.08368    0.34796    0.72413    1.000
    N482     N        0.08602    0.27420    0.73202    1.000
    N483     N        0.07385    0.30084    0.65341    1.000
    Si484    Si       0.09220    0.28713    0.69062    1.000
    N485     N        0.10189    0.36771    0.63979    1.000
    N486     N        0.05225    0.37028    0.70322    1.000
    Si487    Si       0.06073    0.38240    0.63022    1.000
    Si488    Si       0.06342    0.41185    0.69384    1.000
    N489     N        0.10573    0.41750    0.69585    1.000
    N490     N        0.05806    0.50730    0.74266    1.000
    N491     N        0.05319    0.41941    0.65173    1.000
    Si492    Si       0.05636    0.45968    0.63516    1.000
    N493     N        0.09868    0.46919    0.64069    1.000
    Si494    Si       0.06826    0.46492    0.74449    1.000
    N495     N        0.07852    0.27580    0.80098    1.000
    Si496    Si       0.08500    0.31632    0.81840    1.000
    N497     N        0.09467    0.31794    0.86094    1.000
    Si498    Si       0.05847    0.28551    0.76188    1.000
    N499     N        0.05826    0.32820    0.75416    1.000
    N500     N        0.09392    0.38051    0.81530    1.000
    Si501    Si       0.10685    0.38248    0.85686    1.000
    N502     N        0.05891    0.44194    0.83010    1.000
    Si503    Si       0.06882    0.41172    0.79846    1.000
    N504     N        0.09093    0.43173    0.76742    1.000
    N505     N        0.08550    0.50274    0.80439    1.000
    Si506    Si       0.08020    0.44699    0.86741    1.000
    N507     N        0.09528    0.48720    0.87061    1.000
    N508     N        0.07080    0.37698    0.87948    1.000
    Si509    Si       0.06730    0.33253    0.89058    1.000
    N510     N        0.07980    0.33618    0.93092    1.000
    N511     N        0.09634    0.27120    0.94057    1.000
    Si512    Si       0.06609    0.36634    0.95851    1.000
    N513     N        0.08923    0.40292    0.95690    1.000
    N514     N        0.09995    0.46525    0.93841    1.000
    Si515    Si       0.05758    0.46075    0.93518    1.000
    N516     N        0.05393    0.43706    0.90025    1.000
    N517     N        0.08891    0.60826    0.08206    1.000
    N518     N        0.06793    0.55395    0.01865    1.000
    Si519    Si       0.05026    0.59310    0.01165    1.000
    Si520    Si       0.06994    0.59844    0.11971    1.000
    N521     N        0.04733    0.56271    0.10976    1.000
    N522     N        0.07467    0.62997    0.01291    1.000
    Si523    Si       0.06474    0.63437    0.05568    1.000
    N524     N        0.06337    0.74316    0.02789    1.000
    N525     N        0.09815    0.72795    0.08935    1.000
    Si526    Si       0.07145    0.67040    0.11387    1.000
    N527     N        0.05817    0.67382    0.07075    1.000
    Si528    Si       0.06411    0.73828    0.11363    1.000
    Si529    Si       0.08599    0.72131    0.99525    1.000
    N530     N        0.09624    0.59045    0.15175    1.000
    N531     N        0.09585    0.52418    0.14807    1.000
    Si532    Si       0.08565    0.60649    0.19120    1.000
    N533     N        0.08894    0.57125    0.21769    1.000
    Si534    Si       0.05335    0.54598    0.21655    1.000
    Si535    Si       0.05368    0.53260    0.14260    1.000
    Si536    Si       0.09125    0.66537    0.22441    1.000
    N537     N        0.04987    0.67287    0.23321    1.000
    N538     N        0.05756    0.70337    0.13803    1.000
    N539     N        0.05039    0.63576    0.12817    1.000
    N540     N        0.10327    0.64629    0.18800    1.000
    Si541    Si       0.07872    0.61536    0.28011    1.000
    Si542    Si       0.07645    0.56373    0.32855    1.000
    N543     N        0.09751    0.52620    0.34217    1.000
    N544     N        0.10077    0.58256    0.30016    1.000
    N545     N        0.06923    0.64161    0.31314    1.000
    Si546    Si       0.06113    0.65964    0.34968    1.000
    N547     N        0.05885    0.73551    0.26337    1.000
    Si548    Si       0.06136    0.73237    0.34658    1.000
    N549     N        0.10080    0.67024    0.36536    1.000
    N550     N        0.10307    0.73022    0.32848    1.000
    Si551    Si       0.10254    0.73713    0.24612    1.000
    N552     N        0.08040    0.57897    0.36848    1.000
    Si553    Si       0.09699    0.54168    0.38278    1.000
    N554     N        0.09663    0.54094    0.45606    1.000
    Si555    Si       0.06143    0.60693    0.39645    1.000
    Si556    Si       0.05711    0.54360    0.43723    1.000
    N557     N        0.09080    0.62772    0.41778    1.000
    N558     N        0.06757    0.51885    0.40276    1.000
    N559     N        0.05821    0.65493    0.46724    1.000
    Si560    Si       0.10241    0.65179    0.45548    1.000
    N561     N        0.06425    0.74006    0.38813    1.000
    Si562    Si       0.06329    0.61548    0.55887    1.000
    N563     N        0.05551    0.57299    0.56511    1.000
    N564     N        0.07154    0.51460    0.51835    1.000
    Si565    Si       0.05563    0.55363    0.52748    1.000
    N566     N        0.06589    0.58241    0.49779    1.000
    N567     N        0.10648    0.74726    0.60689    1.000
    N568     N        0.06364    0.63501    0.59741    1.000
    N569     N        0.05485    0.71605    0.50496    1.000
    Si570    Si       0.07528    0.72402    0.58709    1.000
    Si571    Si       0.09489    0.70568    0.52021    1.000
    N572     N        0.08994    0.69386    0.56249    1.000
    N573     N        0.05982    0.75557    0.56124    1.000
    N574     N        0.05054    0.71180    0.61846    1.000
    Si575    Si       0.09161    0.55454    0.64893    1.000
    Si576    Si       0.09722    0.51893    0.72276    1.000
    N577     N        0.10096    0.52646    0.68039    1.000
    N578     N        0.09671    0.59413    0.65843    1.000
    Si579    Si       0.08997    0.62835    0.63184    1.000
    Si580    Si       0.09992    0.68579    0.67485    1.000
    N581     N        0.08386    0.67220    0.71191    1.000
    N582     N        0.06819    0.65973    0.65447    1.000
    N583     N        0.09830    0.72819    0.73780    1.000
    Si584    Si       0.06940    0.53769    0.77616    1.000
    N585     N        0.06813    0.56321    0.81001    1.000
    Si586    Si       0.08098    0.60701    0.80381    1.000
    N587     N        0.09211    0.61617    0.84506    1.000
    Si588    Si       0.09295    0.58128    0.86879    1.000
    N589     N        0.10571    0.54940    0.75208    1.000
    N590     N        0.08538    0.68598    0.85140    1.000
    N591     N        0.08323    0.73950    0.80080    1.000
    Si592    Si       0.06831    0.70101    0.81512    1.000
    N593     N        0.08134    0.67538    0.78344    1.000
    Si594    Si       0.06865    0.74781    0.76142    1.000
    N595     N        0.06789    0.75049    0.86351    1.000
    Si596    Si       0.10126    0.68762    0.74686    1.000
    N597     N        0.09733    0.58272    0.96715    1.000
    N598     N        0.09651    0.52998    0.91996    1.000
    Si599    Si       0.08979    0.61133    0.93649    1.000
    Si600    Si       0.05408    0.53287    0.90907    1.000
    N601     N        0.05081    0.62170    0.92035    1.000
    N602     N        0.05277    0.56318    0.87500    1.000
    Si603    Si       0.05287    0.66577    0.94204    1.000
    N604     N        0.10548    0.71903    0.91063    1.000
    Si605    Si       0.08970    0.75630    0.92960    1.000
    N606     N        0.05630    0.69993    0.97311    1.000
    N607     N        0.09570    0.65260    0.95262    1.000
    N608     N        0.10002    0.75409    0.97041    1.000
    Si609    Si       0.07129    0.70932    0.88459    1.000
    Si610    Si       0.08557    0.86376    0.09465    1.000
    N611     N        0.07637    0.78896    0.08383    1.000
    N612     N        0.08430    0.80630    0.00715    1.000
    N613     N        0.06223    0.87301    0.00727    1.000
    Si614    Si       0.09364    0.75866    0.05779    1.000
    N615     N        0.10968    0.86478    0.06055    1.000
    Si616    Si       0.09811    0.89339    0.02591    1.000
    Si617    Si       0.08501    0.93829    0.09627    1.000
    N618     N        0.08359    0.99346    0.02840    1.000
    N619     N        0.08212    0.92581    0.05560    1.000
    Si620    Si       0.07269    0.95280    0.02361    1.000
    N621     N        0.07967    0.89988    0.11876    1.000
    Si622    Si       0.05542    0.00568    0.11734    1.000
    N623     N        0.05195    0.96319    0.10974    1.000
    Si624    Si       0.10267    0.79187    0.12120    1.000
    N625     N        0.10183    0.83528    0.12210    1.000
    Si626    Si       0.05815    0.82580    0.23667    1.000
    N627     N        0.07277    0.76872    0.14460    1.000
    Si628    Si       0.06831    0.76485    0.18830    1.000
    N629     N        0.10443    0.76407    0.21195    1.000
    N630     N        0.10586    0.93692    0.17515    1.000
    N631     N        0.06437    0.99573    0.23837    1.000
    Si632    Si       0.08661    0.90136    0.16302    1.000
    Si633    Si       0.07094    0.80505    0.33606    1.000
    N634     N        0.05819    0.84853    0.33435    1.000
    N635     N        0.09893    0.80250    0.30198    1.000
    Si636    Si       0.08690    0.88301    0.33963    1.000
    N637     N        0.09435    0.84682    0.24841    1.000
    N638     N        0.06130    0.91834    0.33605    1.000
    N639     N        0.08990    0.93799    0.27256    1.000
    Si640    Si       0.09851    0.97596    0.25535    1.000
    Si641    Si       0.05357    0.92805    0.29261    1.000
    N642     N        0.09970    0.79506    0.36687    1.000
    N643     N        0.08916    0.76468    0.44114    1.000
    N644     N        0.07843    0.84934    0.45134    1.000
    Si645    Si       0.06885    0.80491    0.46107    1.000
    Si646    Si       0.10699    0.76313    0.39906    1.000
    Si647    Si       0.05180    0.88261    0.43808    1.000
    Si648    Si       0.11158    0.94513    0.37931    1.000
    Si649    Si       0.05469    0.94602    0.48826    1.000
    N650     N        0.07178    0.91943    0.45515    1.000
    Si651    Si       0.10219    0.99260    0.49035    1.000
    Si652    Si       0.05632    0.00128    0.37790    1.000
    N653     N        0.06841    0.95894    0.38600    1.000
    N654     N        0.07977    0.00598    0.45517    1.000
    Si655    Si       0.08649    0.81342    0.52473    1.000
    Si656    Si       0.08325    0.78667    0.58356    1.000
    N657     N        0.06164    0.82003    0.56179    1.000
    N658     N        0.09722    0.85580    0.51911    1.000
    N659     N        0.05259    0.78874    0.50027    1.000
    Si660    Si       0.09027    0.88024    0.55338    1.000
    N661     N        0.05178    0.88606    0.56971    1.000
    N662     N        0.06755    0.97870    0.51235    1.000
    Si663    Si       0.05195    0.99668    0.54957    1.000
    N664     N        0.07901    0.79784    0.62592    1.000
    Si665    Si       0.06559    0.83314    0.64732    1.000
    Si666    Si       0.09331    0.76531    0.65069    1.000
    N667     N        0.05283    0.76414    0.67396    1.000
    N668     N        0.10319    0.85509    0.65297    1.000
    N669     N        0.07331    0.78842    0.73989    1.000
    N670     N        0.08637    0.97591    0.64950    1.000
    N671     N        0.05189    0.94732    0.70007    1.000
    Si672    Si       0.09253    0.94353    0.71560    1.000
    N673     N        0.08607    0.91382    0.74650    1.000
    N674     N        0.07639    0.80256    0.81489    1.000
    Si675    Si       0.08740    0.81277    0.77361    1.000
    Si676    Si       0.06176    0.83703    0.83746    1.000
    N677     N        0.07802    0.85261    0.76503    1.000
    N678     N        0.09899    0.86238    0.83766    1.000
    Si679    Si       0.09433    0.76712    0.83289    1.000
    Si680    Si       0.07308    0.94344    0.77753    1.000
    N681     N        0.07209    0.94891    0.85570    1.000
    Si682    Si       0.05732    0.98982    0.85333    1.000
    N683     N        0.05901    0.97733    0.75690    1.000
    N684     N        0.07863    0.00691    0.82095    1.000
    Si685    Si       0.10497    0.88516    0.87597    1.000
    N686     N        0.06336    0.81950    0.87898    1.000
    Si687    Si       0.06212    0.83584    0.98279    1.000
    Si688    Si       0.09414    0.82708    0.90885    1.000
    N689     N        0.06926    0.84363    0.94189    1.000
    N690     N        0.04688    0.76274    0.92256    1.000
    Si691    Si       0.04829    0.90908    0.98729    1.000
    N692     N        0.06675    0.00611    0.96160    1.000
    N693     N        0.06504    0.89193    0.89300    1.000
    N694     N        0.08841    0.92644    0.99134    1.000
    Si695    Si       0.07079    0.98128    0.92456    1.000
    N696     N        0.14002    0.07749    0.03892    1.000
    N697     N        0.13032    0.12565    0.09169    1.000
    Si698    Si       0.15942    0.10786    0.06700    1.000
    N699     N        0.15448    0.01532    0.08519    1.000
    Si700    Si       0.12292    0.08356    0.00021    1.000
    N701     N        0.12836    0.22133    0.08488    1.000
    N702     N        0.13572    0.22812    0.01724    1.000
    Si703    Si       0.11135    0.20851    0.04851    1.000
    N704     N        0.14318    0.05765    0.18723    1.000
    Si705    Si       0.12570    0.11411    0.13550    1.000
    Si706    Si       0.13879    0.06883    0.22834    1.000
    N707     N        0.15683    0.10967    0.22782    1.000
    Si708    Si       0.11106    0.03560    0.16843    1.000
    N709     N        0.15726    0.17981    0.20749    1.000
    N710     N        0.12540    0.21594    0.15537    1.000
    N711     N        0.11806    0.14792    0.16124    1.000
    Si712    Si       0.15510    0.24965    0.16137    1.000
    Si713    Si       0.14783    0.18005    0.16604    1.000
    Si714    Si       0.14233    0.15056    0.23596    1.000
    N715     N        0.13708    0.06085    0.32305    1.000
    Si716    Si       0.12975    0.09361    0.35107    1.000
    Si717    Si       0.12770    0.04472    0.28520    1.000
    N718     N        0.15136    0.12779    0.33613    1.000
    N719     N        0.16337    0.04910    0.25891    1.000
    Si720    Si       0.12682    0.14949    0.30861    1.000
    Si721    Si       0.14305    0.21668    0.35223    1.000
    N722     N        0.12092    0.19402    0.31890    1.000
    N723     N        0.15267    0.16397    0.27505    1.000
    Si724    Si       0.15067    0.21213    0.28707    1.000
    N725     N        0.13082    0.23742    0.25846    1.000
    N726     N        0.16334    0.24049    0.31987    1.000
    N727     N        0.14800    0.07957    0.38632    1.000
    N728     N        0.14039    0.03514    0.44452    1.000
    Si729    Si       0.14733    0.04772    0.48810    1.000
    N730     N        0.12792    0.08774    0.48433    1.000
    Si731    Si       0.11057    0.11235    0.45462    1.000
    N732     N        0.14723    0.13095    0.43601    1.000
    Si733    Si       0.13043    0.24052    0.41418    1.000
    N734     N        0.11515    0.21184    0.44334    1.000
    N735     N        0.11265    0.23668    0.37588    1.000
    N736     N        0.14677    0.17178    0.49637    1.000
    N737     N        0.14793    0.05060    0.57195    1.000
    N738     N        0.12315    0.10782    0.60268    1.000
    N739     N        0.12734    0.01934    0.51436    1.000
    Si740    Si       0.12243    0.01816    0.55717    1.000
    Si741    Si       0.13745    0.06563    0.61091    1.000
    Si742    Si       0.13893    0.12888    0.56740    1.000
    N743     N        0.14464    0.23069    0.52921    1.000
    N744     N        0.13429    0.17312    0.56886    1.000
    Si745    Si       0.15752    0.18900    0.53410    1.000
    Si746    Si       0.13785    0.12093    0.72384    1.000
    N747     N        0.14828    0.09309    0.69277    1.000
    N748     N        0.14604    0.03611    0.73462    1.000
    N749     N        0.14490    0.01736    0.66912    1.000
    Si750    Si       0.15777    0.04920    0.69612    1.000
    Si751    Si       0.10944    0.01356    0.73925    1.000
    N752     N        0.11541    0.25469    0.67157    1.000
    N753     N        0.15907    0.21107    0.66756    1.000
    N754     N        0.14048    0.22018    0.72911    1.000
    Si755    Si       0.15922    0.25379    0.66496    1.000
    Si756    Si       0.11415    0.20977    0.67129    1.000
    N757     N        0.13237    0.11292    0.83060    1.000
    N758     N        0.13032    0.10206    0.76156    1.000
    N759     N        0.11902    0.04957    0.85115    1.000
    Si760    Si       0.14479    0.08152    0.85839    1.000
    Si761    Si       0.15706    0.10212    0.79622    1.000
    Si762    Si       0.12004    0.01506    0.82507    1.000
    N763     N        0.13606    0.17408    0.77451    1.000
    Si764    Si       0.14958    0.24139    0.85021    1.000
    N765     N        0.11438    0.22617    0.82809    1.000
    Si766    Si       0.11350    0.24872    0.75431    1.000
    Si767    Si       0.10677    0.19347    0.80033    1.000
    Si768    Si       0.14953    0.06636    0.93243    1.000
    N769     N        0.13211    0.09305    0.89814    1.000
    N770     N        0.13482    0.02814    0.91339    1.000
    N771     N        0.14083    0.10043    0.96300    1.000
    N772     N        0.12638    0.04141    0.98747    1.000
    Si773    Si       0.15940    0.01214    0.98825    1.000
    N774     N        0.15539    0.16331    0.91739    1.000
    Si775    Si       0.16261    0.20684    0.91380    1.000
    Si776    Si       0.15118    0.19874    0.98800    1.000
    N777     N        0.12459    0.16595    0.97828    1.000
    Si778    Si       0.13044    0.13778    0.94473    1.000
    N779     N        0.13670    0.23244    0.89133    1.000
    N780     N        0.16285    0.22346    0.95411    1.000
    Si781    Si       0.14718    0.37092    0.04625    1.000
    Si782    Si       0.14189    0.27077    0.02206    1.000
    N783     N        0.10805    0.35508    0.05135    1.000
    N784     N        0.16456    0.38418    0.08595    1.000
    Si785    Si       0.14910    0.44524    0.03114    1.000
    N786     N        0.12361    0.44152    0.06728    1.000
    Si787    Si       0.11508    0.42802    0.10662    1.000
    N788     N        0.11430    0.45234    0.00606    1.000
    N789     N        0.15983    0.40365    0.02120    1.000
    N790     N        0.14435    0.35602    0.14792    1.000
    Si791    Si       0.13844    0.32334    0.17553    1.000
    N792     N        0.13260    0.28639    0.15360    1.000
    Si793    Si       0.14973    0.27173    0.23127    1.000
    N794     N        0.10761    0.28573    0.23233    1.000
    N795     N        0.15040    0.49153    0.12436    1.000
    N796     N        0.14787    0.42711    0.13782    1.000
    N797     N        0.12805    0.40108    0.22703    1.000
    N798     N        0.11559    0.46556    0.17736    1.000
    Si799    Si       0.13264    0.42535    0.18217    1.000
    Si800    Si       0.11040    0.48485    0.13910    1.000
    Si801    Si       0.10473    0.49438    0.20715    1.000
    Si802    Si       0.12356    0.33071    0.32609    1.000
    N803     N        0.13589    0.36693    0.30360    1.000
    N804     N        0.15845    0.30491    0.33379    1.000
    N805     N        0.10551    0.34396    0.36452    1.000
    Si806    Si       0.12013    0.39396    0.27237    1.000
    N807     N        0.13794    0.47809    0.30521    1.000
    Si808    Si       0.14528    0.49732    0.26427    1.000
    N809     N        0.16292    0.41467    0.27787    1.000
    N810     N        0.11017    0.47868    0.24586    1.000
    Si811    Si       0.13160    0.37158    0.38668    1.000
    N812     N        0.12486    0.35535    0.42641    1.000
    Si813    Si       0.15217    0.37868    0.45383    1.000
    N814     N        0.10969    0.27486    0.43419    1.000
    N815     N        0.11692    0.38467    0.48005    1.000
    N816     N        0.12128    0.41388    0.39424    1.000
    Si817    Si       0.11123    0.49821    0.45389    1.000
    Si818    Si       0.14878    0.44247    0.41334    1.000
    N819     N        0.13482    0.48215    0.42059    1.000
    N820     N        0.13946    0.50474    0.48686    1.000
    N821     N        0.16287    0.42486    0.45475    1.000
    N822     N        0.14465    0.28222    0.57172    1.000
    N823     N        0.13466    0.32854    0.52301    1.000
    Si824    Si       0.11368    0.30505    0.55363    1.000
    N825     N        0.15828    0.37074    0.59965    1.000
    N826     N        0.13177    0.44227    0.51405    1.000
    Si827    Si       0.13003    0.45527    0.55516    1.000
    N828     N        0.12884    0.49956    0.55710    1.000
    Si829    Si       0.14491    0.41050    0.59558    1.000
    N830     N        0.10813    0.42926    0.58162    1.000
    Si831    Si       0.15200    0.32088    0.68278    1.000
    N832     N        0.14178    0.31396    0.63910    1.000
    Si833    Si       0.14630    0.37229    0.64416    1.000
    N834     N        0.11289    0.32549    0.70083    1.000
    N835     N        0.11107    0.37352    0.74551    1.000
    Si836    Si       0.13102    0.50652    0.65619    1.000
    Si837    Si       0.11812    0.41617    0.73725    1.000
    N838     N        0.11159    0.47798    0.72787    1.000
    N839     N        0.15191    0.46734    0.67551    1.000
    N840     N        0.14711    0.41597    0.63805    1.000
    Si841    Si       0.15311    0.47037    0.71773    1.000
    Si842    Si       0.12155    0.43909    0.66191    1.000
    N843     N        0.15809    0.43318    0.74234    1.000
    N844     N        0.12447    0.32466    0.79585    1.000
    Si845    Si       0.12303    0.36694    0.78689    1.000
    N846     N        0.14498    0.35999    0.85872    1.000
    N847     N        0.15186    0.28545    0.84311    1.000
    Si848    Si       0.15637    0.29628    0.79994    1.000
    Si849    Si       0.13733    0.31866    0.86903    1.000
    N850     N        0.15069    0.26084    0.77526    1.000
    Si851    Si       0.11396    0.50928    0.83551    1.000
    N852     N        0.15614    0.39400    0.79784    1.000
    N853     N        0.14951    0.48581    0.83249    1.000
    Si854    Si       0.15116    0.45303    0.86335    1.000
    N855     N        0.11691    0.42394    0.86407    1.000
    Si856    Si       0.11513    0.31081    0.94307    1.000
    N857     N        0.14303    0.31198    0.91097    1.000
    N858     N        0.12489    0.33394    0.98014    1.000
    N859     N        0.15884    0.43088    0.95907    1.000
    Si860    Si       0.11526    0.43560    0.96489    1.000
    Si861    Si       0.11450    0.49410    0.90878    1.000
    N862     N        0.15611    0.48082    0.90119    1.000
    N863     N        0.13508    0.55780    0.10153    1.000
    N864     N        0.13360    0.58112    0.02871    1.000
    Si865    Si       0.12693    0.59021    0.07168    1.000
    N866     N        0.16054    0.61841    0.06960    1.000
    Si867    Si       0.10792    0.56085    0.00249    1.000
    Si868    Si       0.16349    0.61313    0.02544    1.000
    Si869    Si       0.16542    0.52948    0.11388    1.000
    N870     N        0.11812    0.69496    0.00787    1.000
    Si871    Si       0.15138    0.72117    0.02479    1.000
    Si872    Si       0.13350    0.70452    0.09908    1.000
    N873     N        0.15955    0.70149    0.06325    1.000
    N874     N        0.15515    0.59014    0.22599    1.000
    Si875    Si       0.12295    0.55767    0.14246    1.000
    N876     N        0.15862    0.61987    0.14173    1.000
    N877     N        0.13663    0.52460    0.20845    1.000
    Si878    Si       0.12765    0.55848    0.23319    1.000
    N879     N        0.11448    0.66979    0.12077    1.000
    Si880    Si       0.15647    0.68928    0.21890    1.000
    N881     N        0.16037    0.72379    0.12769    1.000
    N882     N        0.11622    0.70034    0.22909    1.000
    Si883    Si       0.13285    0.65257    0.15640    1.000
    N884     N        0.16164    0.68035    0.17767    1.000
    Si885    Si       0.14604    0.57239    0.30056    1.000
    N886     N        0.14351    0.53999    0.27016    1.000
    Si887    Si       0.14759    0.62602    0.25125    1.000
    Si888    Si       0.12754    0.70371    0.35421    1.000
    N889     N        0.13487    0.75024    0.27293    1.000
    N890     N        0.10488    0.63424    0.25240    1.000
    Si891    Si       0.15848    0.57975    0.37168    1.000
    N892     N        0.14828    0.62064    0.37221    1.000
    N893     N        0.13754    0.54926    0.39467    1.000
    N894     N        0.12154    0.61667    0.47883    1.000
    Si895    Si       0.16077    0.51272    0.40438    1.000
    Si896    Si       0.10474    0.57549    0.48330    1.000
    N897     N        0.11356    0.67382    0.49437    1.000
    N898     N        0.13338    0.67142    0.43011    1.000
    Si899    Si       0.14919    0.71241    0.42618    1.000
    Si900    Si       0.12264    0.64680    0.39464    1.000
    N901     N        0.15116    0.74209    0.45741    1.000
    N902     N        0.12694    0.72470    0.39160    1.000
    N903     N        0.12714    0.56157    0.51839    1.000
    Si904    Si       0.14734    0.52392    0.58915    1.000
    Si905    Si       0.11499    0.51749    0.51922    1.000
    N906     N        0.10392    0.62620    0.54714    1.000
    Si907    Si       0.13453    0.63956    0.51576    1.000
    N908     N        0.15217    0.66670    0.55080    1.000
    Si909    Si       0.11422    0.65749    0.57352    1.000
    N910     N        0.11673    0.74387    0.51517    1.000
    Si911    Si       0.14900    0.74041    0.60388    1.000
    N912     N        0.12607    0.64374    0.61523    1.000
    N913     N        0.11843    0.53394    0.62041    1.000
    Si914    Si       0.11390    0.75765    0.71032    1.000
    N915     N        0.14034    0.67135    0.67531    1.000
    N916     N        0.10874    0.72916    0.67354    1.000
    Si917    Si       0.15774    0.66456    0.63570    1.000
    Si918    Si       0.13802    0.57296    0.76772    1.000
    N919     N        0.11845    0.60913    0.78103    1.000
    Si920    Si       0.15359    0.56352    0.84081    1.000
    N921     N        0.11706    0.54815    0.85393    1.000
    N922     N        0.15317    0.54809    0.80006    1.000
    Si923    Si       0.14437    0.64373    0.78365    1.000
    N924     N        0.14646    0.66486    0.82252    1.000
    Si925    Si       0.11310    0.65335    0.84943    1.000
    N926     N        0.16338    0.71098    0.87350    1.000
    N927     N        0.14210    0.67223    0.74976    1.000
    N928     N        0.16200    0.55183    0.91984    1.000
    Si929    Si       0.15059    0.61563    0.89494    1.000
    Si930    Si       0.12409    0.55857    0.93750    1.000
    N931     N        0.11369    0.59272    0.90574    1.000
    N932     N        0.13344    0.53294    0.98234    1.000
    Si933    Si       0.14121    0.69345    0.90679    1.000
    N934     N        0.13378    0.65453    0.88842    1.000
    Si935    Si       0.10756    0.65307    0.99390    1.000
    Si936    Si       0.16141    0.75323    0.87897    1.000
    N937     N        0.14933    0.63838    0.99270    1.000
    N938     N        0.14276    0.78081    0.09885    1.000
    Si939    Si       0.15096    0.86369    0.04816    1.000
    Si940    Si       0.15542    0.78587    0.05918    1.000
    N941     N        0.12853    0.76171    0.03221    1.000
    N942     N        0.16205    0.82491    0.03562    1.000
    Si943    Si       0.11942    0.78346    0.99574    1.000
    N944     N        0.14068    0.89147    0.01389    1.000
    N945     N        0.12296    0.95727    0.11266    1.000
    Si946    Si       0.16109    0.97332    0.09837    1.000
    Si947    Si       0.16267    0.76573    0.13861    1.000
    Si948    Si       0.13288    0.83604    0.15271    1.000
    N949     N        0.13180    0.79336    0.15733    1.000
    N950     N        0.14989    0.82463    0.21597    1.000
    Si951    Si       0.12456    0.85943    0.22059    1.000
    Si952    Si       0.14075    0.78392    0.19921    1.000
    N953     N        0.11299    0.86941    0.17894    1.000
    Si954    Si       0.11058    0.97316    0.15327    1.000
    N955     N        0.13377    0.96870    0.22910    1.000
    N956     N        0.14240    0.99848    0.17023    1.000
    Si957    Si       0.13582    0.92917    0.20584    1.000
    N958     N        0.13505    0.89899    0.23744    1.000
    Si959    Si       0.16601    0.98255    0.20368    1.000
    N960     N        0.15324    0.83181    0.28495    1.000
    N961     N        0.15589    0.77871    0.33661    1.000
    Si962    Si       0.12367    0.76742    0.31082    1.000
    Si963    Si       0.11317    0.84098    0.28754    1.000
    N964     N        0.15678    0.84594    0.35628    1.000
    N965     N        0.11171    0.88033    0.30494    1.000
    Si966    Si       0.14182    0.80716    0.36659    1.000
    N967     N        0.12595    0.97594    0.35247    1.000
    Si968    Si       0.14177    0.97945    0.31403    1.000
    Si969    Si       0.12568    0.91346    0.28025    1.000
    N970     N        0.15433    0.93850    0.29888    1.000
    N971     N        0.11589    0.00201    0.28747    1.000
    N972     N        0.11663    0.90055    0.36936    1.000
    N973     N        0.14637    0.78743    0.40552    1.000
    Si974    Si       0.11820    0.85037    0.47840    1.000
    Si975    Si       0.11791    0.76206    0.47393    1.000
    N976     N        0.11174    0.80610    0.48552    1.000
    N977     N        0.13073    0.94435    0.41702    1.000
    Si978    Si       0.11476    0.92856    0.45225    1.000
    N979     N        0.13418    0.89430    0.46995    1.000
    Si980    Si       0.15680    0.88455    0.37632    1.000
    N981     N        0.12352    0.95336    0.48592    1.000
    N982     N        0.12128    0.79604    0.56025    1.000
    Si983    Si       0.14351    0.83062    0.57188    1.000
    Si984    Si       0.14616    0.76757    0.53757    1.000
    N985     N        0.11407    0.86020    0.58537    1.000
    N986     N        0.12912    0.97896    0.57184    1.000
    Si987    Si       0.12969    0.93767    0.57756    1.000
    Si988    Si       0.13664    0.91909    0.50704    1.000
    N989     N        0.11092    0.91770    0.54376    1.000
    N990     N        0.10968    0.92217    0.61341    1.000
    Si991    Si       0.12221    0.88084    0.62389    1.000
    Si992    Si       0.12605    0.83113    0.68520    1.000
    N993     N        0.12804    0.86281    0.71431    1.000
    N994     N        0.14905    0.76848    0.73106    1.000
    N995     N        0.11239    0.79089    0.68262    1.000
    N996     N        0.11829    0.97155    0.73543    1.000
    N997     N        0.16001    0.95426    0.64446    1.000
    Si998    Si       0.11818    0.94555    0.64782    1.000
    N999     N        0.11858    0.92518    0.68672    1.000
    Si1000   Si       0.14878    0.89139    0.68810    1.000
    N1001    N        0.16087    0.88842    0.64303    1.000
    N1002    N        0.12931    0.81754    0.78180    1.000
    Si1003   Si       0.13239    0.85196    0.81074    1.000
    N1004    N        0.13510    0.77334    0.84991    1.000
    Si1005   Si       0.11011    0.87864    0.75093    1.000
    N1006    N        0.16145    0.83860    0.84141    1.000
    Si1007   Si       0.16110    0.79645    0.76180    1.000
    N1008    N        0.13938    0.88375    0.78352    1.000
    Si1009   Si       0.14143    0.96367    0.77053    1.000
    N1010    N        0.13164    0.98428    0.85542    1.000
    N1011    N        0.14428    0.00134    0.79076    1.000
    N1012    N        0.11017    0.94774    0.79909    1.000
    N1013    N        0.13032    0.91875    0.86884    1.000
    Si1014   Si       0.11437    0.94732    0.84203    1.000
    N1015    N        0.15045    0.80023    0.97156    1.000
    Si1016   Si       0.15407    0.79437    0.92986    1.000
    N1017    N        0.12482    0.85581    0.89874    1.000
    N1018    N        0.11332    0.78923    0.91487    1.000
    Si1019   Si       0.16556    0.85403    0.88511    1.000
    N1020    N        0.10895    0.96231    0.92733    1.000
    Si1021   Si       0.12155    0.94230    0.96465    1.000
    N1022    N        0.13109    0.97882    0.98846    1.000
    N1023    N        0.16129    0.92730    0.95772    1.000
    Si1024   Si       0.13807    0.98487    0.90138    1.000
    N1025    N        0.19477    0.07708    0.06505    1.000
    N1026    N        0.18224    0.01848    0.02519    1.000
    Si1027   Si       0.21827    0.07709    0.10291    1.000
    Si1028   Si       0.21822    0.10648    0.03622    1.000
    Si1029   Si       0.16644    0.04372    0.05537    1.000
    N1030    N        0.18826    0.13722    0.05230    1.000
    N1031    N        0.19462    0.20264    0.07936    1.000
    Si1032   Si       0.20190    0.17738    0.04440    1.000
    N1033    N        0.18715    0.18468    0.00392    1.000
    Si1034   Si       0.16810    0.23780    0.08633    1.000
    Si1035   Si       0.20381    0.20362    0.12170    1.000
    Si1036   Si       0.17784    0.05970    0.15987    1.000
    N1037    N        0.20395    0.04426    0.12756    1.000
    N1038    N        0.21006    0.06373    0.18785    1.000
    Si1039   Si       0.19786    0.09662    0.21467    1.000
    N1040    N        0.16658    0.10115    0.14108    1.000
    N1041    N        0.20770    0.12857    0.18761    1.000
    N1042    N        0.17224    0.24422    0.20187    1.000
    N1043    N        0.17905    0.23867    0.12905    1.000
    Si1044   Si       0.19769    0.13142    0.14587    1.000
    N1045    N        0.18188    0.17116    0.14070    1.000
    Si1046   Si       0.18818    0.20797    0.22214    1.000
    N1047    N        0.20758    0.06187    0.31748    1.000
    Si1048   Si       0.20466    0.05025    0.27461    1.000
    Si1049   Si       0.17464    0.04301    0.33912    1.000
    N1050    N        0.21982    0.08327    0.25009    1.000
    Si1051   Si       0.18548    0.15038    0.35149    1.000
    Si1052   Si       0.19795    0.17053    0.28055    1.000
    N1053    N        0.21209    0.16408    0.32048    1.000
    N1054    N        0.19340    0.21216    0.26594    1.000
    N1055    N        0.21631    0.15087    0.24830    1.000
    N1056    N        0.16835    0.18733    0.36922    1.000
    Si1057   Si       0.20458    0.08221    0.47425    1.000
    N1058    N        0.19029    0.02986    0.37913    1.000
    N1059    N        0.19072    0.07730    0.43477    1.000
    Si1060   Si       0.17149    0.10750    0.40903    1.000
    N1061    N        0.19578    0.12414    0.48647    1.000
    N1062    N        0.19980    0.12736    0.38326    1.000
    Si1063   Si       0.16801    0.04700    0.41199    1.000
    N1064    N        0.19691    0.17566    0.44281    1.000
    Si1065   Si       0.18938    0.19808    0.40543    1.000
    Si1066   Si       0.17179    0.15199    0.46625    1.000
    N1067    N        0.17254    0.23633    0.41312    1.000
    Si1068   Si       0.18466    0.06632    0.54891    1.000
    N1069    N        0.18717    0.05770    0.50656    1.000
    N1070    N        0.17315    0.11109    0.55036    1.000
    N1071    N        0.21803    0.05800    0.57474    1.000
    Si1072   Si       0.20410    0.13284    0.52951    1.000
    N1073    N        0.19840    0.17507    0.53747    1.000
    N1074    N        0.19891    0.23717    0.56493    1.000
    Si1075   Si       0.21238    0.24015    0.60553    1.000
    Si1076   Si       0.21041    0.06224    0.66073    1.000
    N1077    N        0.20063    0.03919    0.69698    1.000
    N1078    N        0.17653    0.07408    0.63480    1.000
    N1079    N        0.21383    0.10282    0.68131    1.000
    Si1080   Si       0.17357    0.11038    0.65913    1.000
    Si1081   Si       0.21067    0.14361    0.70074    1.000
    N1082    N        0.17424    0.14363    0.72631    1.000
    N1083    N        0.20645    0.25111    0.73539    1.000
    N1084    N        0.18558    0.14998    0.65449    1.000
    Si1085   Si       0.19580    0.19121    0.65784    1.000
    N1086    N        0.22000    0.18759    0.69512    1.000
    Si1087   Si       0.19796    0.04898    0.82898    1.000
    N1088    N        0.21130    0.02125    0.76296    1.000
    N1089    N        0.18726    0.07788    0.85930    1.000
    N1090    N        0.16857    0.06206    0.79837    1.000
    Si1091   Si       0.17098    0.03009    0.77008    1.000
    N1092    N        0.19931    0.00751    0.83888    1.000
    N1093    N        0.19078    0.13114    0.79441    1.000
    N1094    N        0.19963    0.19879    0.76554    1.000
    N1095    N        0.18746    0.22419    0.84277    1.000
    Si1096   Si       0.17645    0.16247    0.76781    1.000
    N1097    N        0.21093    0.14642    0.85972    1.000
    Si1098   Si       0.22190    0.20181    0.85787    1.000
    Si1099   Si       0.17365    0.23056    0.75560    1.000
    Si1100   Si       0.22582    0.14681    0.81756    1.000
    Si1101   Si       0.21511    0.10489    0.87518    1.000
    N1102    N        0.21110    0.11864    0.91744    1.000
    N1103    N        0.19369    0.06139    0.94065    1.000
    Si1104   Si       0.21699    0.02442    0.94273    1.000
    Si1105   Si       0.22355    0.09169    0.95153    1.000
    N1106    N        0.21940    0.10350    0.99306    1.000
    Si1107   Si       0.18994    0.25676    0.96259    1.000
    Si1108   Si       0.19445    0.15418    0.90162    1.000
    N1109    N        0.20333    0.19660    0.89965    1.000
    N1110    N        0.22041    0.24133    0.99026    1.000
    Si1111   Si       0.19051    0.30389    0.05677    1.000
    N1112    N        0.20104    0.32868    0.09105    1.000
    Si1113   Si       0.20457    0.37329    0.09007    1.000
    N1114    N        0.16772    0.33403    0.03447    1.000
    N1115    N        0.16684    0.26900    0.05639    1.000
    N1116    N        0.17311    0.48167    0.03028    1.000
    Si1117   Si       0.20531    0.50600    0.04644    1.000
    Si1118   Si       0.18761    0.32509    0.23975    1.000
    N1119    N        0.19180    0.36798    0.23769    1.000
    N1120    N        0.16209    0.31116    0.20906    1.000
    N1121    N        0.20709    0.39234    0.12961    1.000
    N1122    N        0.17493    0.43195    0.20132    1.000
    Si1123   Si       0.20050    0.46477    0.21576    1.000
    N1124    N        0.21695    0.46278    0.12440    1.000
    N1125    N        0.18962    0.48756    0.18064    1.000
    Si1126   Si       0.17714    0.46289    0.14526    1.000
    Si1127   Si       0.17064    0.40643    0.23483    1.000
    Si1128   Si       0.16479    0.38840    0.12919    1.000
    Si1129   Si       0.17895    0.27815    0.30748    1.000
    Si1130   Si       0.18136    0.32508    0.36518    1.000
    N1131    N        0.17757    0.28562    0.26466    1.000
    N1132    N        0.16687    0.36646    0.36164    1.000
    N1133    N        0.21423    0.37628    0.30427    1.000
    N1134    N        0.22299    0.27725    0.30544    1.000
    Si1135   Si       0.17191    0.38837    0.31634    1.000
    N1136    N        0.20920    0.46959    0.31085    1.000
    N1137    N        0.17769    0.42441    0.34139    1.000
    Si1138   Si       0.19864    0.45965    0.35995    1.000
    Si1139   Si       0.17042    0.45047    0.30212    1.000
    N1140    N        0.18197    0.47482    0.25482    1.000
    Si1141   Si       0.20077    0.26947    0.40926    1.000
    N1142    N        0.17740    0.34863    0.47478    1.000
    Si1143   Si       0.19647    0.33749    0.43745    1.000
    N1144    N        0.18325    0.30953    0.40532    1.000
    N1145    N        0.18772    0.37861    0.41931    1.000
    N1146    N        0.22129    0.27242    0.44719    1.000
    Si1147   Si       0.16891    0.44638    0.49400    1.000
    N1148    N        0.19332    0.43696    0.40074    1.000
    N1149    N        0.18445    0.50194    0.36995    1.000
    Si1150   Si       0.20435    0.41667    0.43881    1.000
    Si1151   Si       0.19357    0.39708    0.37843    1.000
    N1152    N        0.19896    0.35717    0.54310    1.000
    Si1153   Si       0.19640    0.35455    0.58472    1.000
    N1154    N        0.20245    0.31057    0.59419    1.000
    N1155    N        0.19264    0.28780    0.51471    1.000
    Si1156   Si       0.17919    0.32938    0.51480    1.000
    Si1157   Si       0.17089    0.26241    0.54440    1.000
    Si1158   Si       0.16404    0.29608    0.60745    1.000
    Si1159   Si       0.19568    0.46530    0.58960    1.000
    N1160    N        0.17370    0.49761    0.61216    1.000
    N1161    N        0.16877    0.43955    0.56880    1.000
    N1162    N        0.20492    0.42056    0.50374    1.000
    Si1163   Si       0.22332    0.39276    0.53316    1.000
    N1164    N        0.19838    0.48093    0.49552    1.000
    N1165    N        0.17925    0.25955    0.62704    1.000
    N1166    N        0.17042    0.36098    0.67794    1.000
    N1167    N        0.17662    0.28630    0.68898    1.000
    Si1168   Si       0.21846    0.28262    0.69543    1.000
    Si1169   Si       0.20223    0.38095    0.70358    1.000
    N1170    N        0.20976    0.44065    0.62226    1.000
    N1171    N        0.20316    0.41802    0.68550    1.000
    N1172    N        0.21708    0.48586    0.67037    1.000
    N1173    N        0.17932    0.50049    0.73599    1.000
    Si1174   Si       0.19237    0.45114    0.66136    1.000
    N1175    N        0.19307    0.31162    0.78697    1.000
    Si1176   Si       0.20857    0.35151    0.78212    1.000
    N1177    N        0.20922    0.36685    0.82391    1.000
    Si1178   Si       0.21775    0.28391    0.76267    1.000
    N1179    N        0.19531    0.37703    0.74865    1.000
    Si1180   Si       0.17278    0.38694    0.83712    1.000
    Si1181   Si       0.18373    0.41318    0.77092    1.000
    N1182    N        0.18078    0.42183    0.86090    1.000
    Si1183   Si       0.21132    0.48293    0.76232    1.000
    N1184    N        0.20829    0.44628    0.78606    1.000
    N1185    N        0.19056    0.36094    0.97682    1.000
    N1186    N        0.16899    0.28391    0.98942    1.000
    Si1187   Si       0.16589    0.32741    0.99068    1.000
    N1188    N        0.21591    0.25858    0.92403    1.000
    Si1189   Si       0.18109    0.40396    0.98359    1.000
    N1190    N        0.18724    0.49597    0.96092    1.000
    Si1191   Si       0.17856    0.46295    0.93518    1.000
    Si1192   Si       0.21784    0.43081    0.88057    1.000
    N1193    N        0.21527    0.44178    0.92191    1.000
    N1194    N        0.22311    0.42033    0.99101    1.000
    Si1195   Si       0.16671    0.50973    0.99690    1.000
    N1196    N        0.19888    0.53481    0.01523    1.000
    N1197    N        0.20319    0.60420    0.01615    1.000
    Si1198   Si       0.18429    0.62462    0.10659    1.000
    N1199    N        0.19745    0.52232    0.08620    1.000
    Si1200   Si       0.22199    0.56994    0.99909    1.000
    N1201    N        0.21017    0.59285    0.11931    1.000
    Si1202   Si       0.19732    0.68967    0.07698    1.000
    N1203    N        0.19507    0.66668    0.11300    1.000
    Si1204   Si       0.21213    0.75760    0.01473    1.000
    N1205    N        0.22073    0.67067    0.04478    1.000
    N1206    N        0.16695    0.55000    0.15380    1.000
    Si1207   Si       0.17723    0.52765    0.18915    1.000
    N1208    N        0.20629    0.54443    0.21730    1.000
    N1209    N        0.21115    0.60292    0.18798    1.000
    Si1210   Si       0.19975    0.58641    0.22740    1.000
    Si1211   Si       0.18683    0.59002    0.15583    1.000
    N1212    N        0.18589    0.71395    0.23984    1.000
    N1213    N        0.17486    0.65421    0.23661    1.000
    Si1214   Si       0.18991    0.69433    0.14707    1.000
    Si1215   Si       0.20102    0.53743    0.35107    1.000
    N1216    N        0.21054    0.62262    0.34142    1.000
    Si1217   Si       0.20396    0.62378    0.29895    1.000
    N1218    N        0.21942    0.59722    0.26626    1.000
    N1219    N        0.16995    0.56047    0.33296    1.000
    N1220    N        0.16048    0.61409    0.28993    1.000
    N1221    N        0.19949    0.73835    0.30505    1.000
    Si1222   Si       0.20414    0.69801    0.32241    1.000
    Si1223   Si       0.17746    0.74429    0.26792    1.000
    N1224    N        0.21850    0.66651    0.29230    1.000
    Si1225   Si       0.18117    0.64751    0.36346    1.000
    Si1226   Si       0.21100    0.67963    0.24951    1.000
    N1227    N        0.16757    0.68399    0.34359    1.000
    Si1228   Si       0.18046    0.51702    0.48094    1.000
    N1229    N        0.20078    0.59371    0.44799    1.000
    N1230    N        0.20357    0.56921    0.38421    1.000
    N1231    N        0.18505    0.52529    0.43830    1.000
    Si1232   Si       0.21161    0.55674    0.42514    1.000
    Si1233   Si       0.20370    0.60525    0.48957    1.000
    Si1234   Si       0.21691    0.63087    0.43033    1.000
    N1235    N        0.20631    0.71522    0.48665    1.000
    Si1236   Si       0.18765    0.75298    0.47801    1.000
    Si1237   Si       0.22052    0.69845    0.40037    1.000
    N1238    N        0.20028    0.65712    0.40248    1.000
    N1239    N        0.18985    0.72683    0.41153    1.000
    Si1240   Si       0.21017    0.56523    0.58847    1.000
    N1241    N        0.19471    0.55240    0.50332    1.000
    N1242    N        0.17245    0.61449    0.51672    1.000
    N1243    N        0.17172    0.55492    0.57043    1.000
    N1244    N        0.22224    0.60578    0.58484    1.000
    Si1245   Si       0.16585    0.57230    0.53139    1.000
    Si1246   Si       0.17813    0.69570    0.56859    1.000
    N1247    N        0.21744    0.67539    0.57180    1.000
    N1248    N        0.16624    0.73974    0.56266    1.000
    N1249    N        0.16377    0.69911    0.61081    1.000
    Si1250   Si       0.19823    0.51597    0.64326    1.000
    Si1251   Si       0.18533    0.53737    0.71336    1.000
    N1252    N        0.17095    0.57171    0.73777    1.000
    N1253    N        0.16769    0.52955    0.67250    1.000
    Si1254   Si       0.19424    0.60804    0.74716    1.000
    N1255    N        0.19126    0.70376    0.70980    1.000
    Si1256   Si       0.21701    0.63903    0.68077    1.000
    Si1257   Si       0.18348    0.74606    0.71645    1.000
    N1258    N        0.18965    0.63676    0.71551    1.000
    N1259    N        0.19716    0.64676    0.64177    1.000
    Si1260   Si       0.16356    0.67116    0.71349    1.000
    N1261    N        0.18716    0.53680    0.85501    1.000
    Si1262   Si       0.19421    0.61804    0.82598    1.000
    N1263    N        0.18241    0.62266    0.78538    1.000
    Si1264   Si       0.17763    0.51360    0.81503    1.000
    N1265    N        0.21550    0.50964    0.79598    1.000
    N1266    N        0.16574    0.60147    0.85546    1.000
    Si1267   Si       0.18027    0.68579    0.84101    1.000
    N1268    N        0.20266    0.71527    0.81836    1.000
    N1269    N        0.20898    0.65482    0.84293    1.000
    N1270    N        0.21046    0.75132    0.75072    1.000
    Si1271   Si       0.19740    0.58075    0.92547    1.000
    Si1272   Si       0.17791    0.52027    0.89393    1.000
    N1273    N        0.17797    0.61892    0.92919    1.000
    N1274    N        0.22044    0.56068    0.95680    1.000
    N1275    N        0.22070    0.51575    0.90510    1.000
    Si1276   Si       0.18739    0.72534    0.95024    1.000
    N1277    N        0.21460    0.65665    0.97608    1.000
    N1278    N        0.16938    0.75475    0.92245    1.000
    Si1279   Si       0.17609    0.64992    0.95970    1.000
    N1280    N        0.16589    0.68795    0.94001    1.000
    N1281    N        0.18193    0.73287    0.99377    1.000
    Si1282   Si       0.19133    0.87166    0.11533    1.000
    Si1283   Si       0.21676    0.76085    0.08806    1.000
    N1284    N        0.21612    0.79680    0.00228    1.000
    N1285    N        0.18968    0.76008    0.05373    1.000
    Si1286   Si       0.18105    0.82093    0.99515    1.000
    N1287    N        0.17589    0.88368    0.07577    1.000
    Si1288   Si       0.20555    0.98591    0.04464    1.000
    N1289    N        0.20466    0.91363    0.01115    1.000
    N1290    N        0.18331    0.95459    0.06239    1.000
    Si1291   Si       0.19973    0.91506    0.05474    1.000
    N1292    N        0.20305    0.77917    0.12517    1.000
    Si1293   Si       0.21126    0.81732    0.14507    1.000
    Si1294   Si       0.20885    0.77140    0.20644    1.000
    N1295    N        0.17267    0.84345    0.14328    1.000
    N1296    N        0.22276    0.80757    0.18435    1.000
    N1297    N        0.17355    0.75883    0.18340    1.000
    Si1298   Si       0.17604    0.82091    0.24909    1.000
    N1299    N        0.19386    0.97234    0.12721    1.000
    N1300    N        0.20401    0.99906    0.21600    1.000
    Si1301   Si       0.22136    0.00391    0.12121    1.000
    N1302    N        0.17432    0.94025    0.18775    1.000
    N1303    N        0.21076    0.90549    0.13468    1.000
    Si1304   Si       0.20371    0.94159    0.15669    1.000
    Si1305   Si       0.20221    0.77399    0.33373    1.000
    Si1306   Si       0.17821    0.84465    0.31866    1.000
    N1307    N        0.21052    0.81601    0.31785    1.000
    N1308    N        0.19511    0.88216    0.30391    1.000
    Si1309   Si       0.22650    0.87196    0.27424    1.000
    N1310    N        0.20910    0.84638    0.24294    1.000
    N1311    N        0.19205    0.78118    0.24643    1.000
    N1312    N        0.17718    0.00379    0.31753    1.000
    Si1313   Si       0.19089    0.92381    0.31638    1.000
    N1314    N        0.18044    0.91678    0.35943    1.000
    N1315    N        0.22307    0.95280    0.30588    1.000
    Si1316   Si       0.21956    0.99480    0.31451    1.000
    Si1317   Si       0.18518    0.77077    0.41164    1.000
    N1318    N        0.20555    0.78087    0.44728    1.000
    N1319    N        0.20838    0.78296    0.37713    1.000
    Si1320   Si       0.17607    0.88024    0.45576    1.000
    N1321    N        0.16373    0.84130    0.47092    1.000
    N1322    N        0.21344    0.89214    0.47461    1.000
    N1323    N        0.18338    0.88620    0.41275    1.000
    Si1324   Si       0.21167    0.91318    0.39339    1.000
    Si1325   Si       0.21488    0.93087    0.49603    1.000
    N1326    N        0.22125    0.96471    0.47224    1.000
    Si1327   Si       0.20651    0.84044    0.57280    1.000
    N1328    N        0.17335    0.84014    0.53918    1.000
    N1329    N        0.17501    0.83531    0.60353    1.000
    N1330    N        0.17491    0.78176    0.50790    1.000
    Si1331   Si       0.18643    0.82291    0.50199    1.000
    N1332    N        0.22246    0.87871    0.58030    1.000
    Si1333   Si       0.20072    0.91037    0.55527    1.000
    N1334    N        0.17773    0.92013    0.51989    1.000
    N1335    N        0.17165    0.92104    0.58463    1.000
    N1336    N        0.22578    0.93774    0.62245    1.000
    Si1337   Si       0.19155    0.85126    0.64010    1.000
    Si1338   Si       0.18853    0.79392    0.65709    1.000
    N1339    N        0.20660    0.77028    0.68852    1.000
    Si1340   Si       0.20466    0.86238    0.73477    1.000
    N1341    N        0.22244    0.81574    0.64173    1.000
    N1342    N        0.16635    0.82853    0.67042    1.000
    N1343    N        0.22482    0.88003    0.64823    1.000
    N1344    N        0.16821    0.76710    0.63000    1.000
    N1345    N        0.20351    0.00472    0.63436    1.000
    Si1346   Si       0.17709    0.98894    0.66589    1.000
    Si1347   Si       0.18430    0.92281    0.62667    1.000
    N1348    N        0.18936    0.89406    0.70674    1.000
    Si1349   Si       0.20031    0.93694    0.72282    1.000
    Si1350   Si       0.21555    0.00649    0.72224    1.000
    N1351    N        0.19293    0.97416    0.70251    1.000
    N1352    N        0.18611    0.78849    0.79979    1.000
    N1353    N        0.19780    0.77349    0.86401    1.000
    Si1354   Si       0.16946    0.79714    0.83652    1.000
    N1355    N        0.20868    0.88217    0.77210    1.000
    N1356    N        0.19620    0.81997    0.74706    1.000
    N1357    N        0.18153    0.92710    0.82654    1.000
    Si1358   Si       0.17625    0.90628    0.78761    1.000
    N1359    N        0.17609    0.94051    0.75822    1.000
    N1360    N        0.18096    0.81945    0.90720    1.000
    N1361    N        0.18320    0.85848    0.97695    1.000
    Si1362   Si       0.21942    0.80146    0.89216    1.000
    Si1363   Si       0.19136    0.95514    0.94166    1.000
    Si1364   Si       0.20650    0.98677    0.87576    1.000
    Si1365   Si       0.17315    0.92630    0.87158    1.000
    N1366    N        0.19084    0.88961    0.88307    1.000
    N1367    N        0.17582    0.96351    0.89937    1.000
    N1368    N        0.18855    0.99532    0.95886    1.000
    Si1369   Si       0.17272    0.89841    0.98529    1.000
    N1370    N        0.25833    0.06488    0.08913    1.000
    Si1371   Si       0.26675    0.02619    0.07055    1.000
    N1372    N        0.25838    0.11868    0.04752    1.000
    N1373    N        0.28261    0.02624    0.03112    1.000
    N1374    N        0.22823    0.11419    0.12154    1.000
    N1375    N        0.24311    0.18242    0.02854    1.000
    Si1376   Si       0.27668    0.15612    0.03173    1.000
    Si1377   Si       0.26728    0.11456    0.14218    1.000
    Si1378   Si       0.24790    0.04471    0.17694    1.000
    N1379    N        0.26646    0.03237    0.21437    1.000
    N1380    N        0.27557    0.07430    0.16035    1.000
    N1381    N        0.26906    0.12648    0.22455    1.000
    N1382    N        0.24931    0.00702    0.15546    1.000
    Si1383   Si       0.27727    0.18945    0.15115    1.000
    Si1384   Si       0.25522    0.22969    0.20421    1.000
    Si1385   Si       0.23908    0.15365    0.20406    1.000
    N1386    N        0.24315    0.21238    0.13367    1.000
    Si1387   Si       0.26014    0.25482    0.13846    1.000
    N1388    N        0.22769    0.19642    0.20391    1.000
    N1389    N        0.26302    0.15171    0.16359    1.000
    N1390    N        0.25672    0.25054    0.24332    1.000
    N1391    N        0.24939    0.11450    0.30030    1.000
    Si1392   Si       0.24622    0.08101    0.32705    1.000
    Si1393   Si       0.24427    0.11828    0.25799    1.000
    N1394    N        0.22959    0.01384    0.27570    1.000
    N1395    N        0.24385    0.07351    0.37163    1.000
    N1396    N        0.26907    0.13284    0.35817    1.000
    Si1397   Si       0.25519    0.15333    0.32096    1.000
    N1398    N        0.26767    0.21977    0.33501    1.000
    N1399    N        0.25048    0.07870    0.47276    1.000
    Si1400   Si       0.24271    0.11401    0.38653    1.000
    Si1401   Si       0.23348    0.02970    0.38156    1.000
    N1402    N        0.24349    0.02099    0.42232    1.000
    Si1403   Si       0.26822    0.04344    0.45249    1.000
    N1404    N        0.25607    0.12933    0.42434    1.000
    Si1405   Si       0.28142    0.10431    0.44841    1.000
    N1406    N        0.23366    0.19225    0.39508    1.000
    Si1407   Si       0.24017    0.17031    0.43156    1.000
    Si1408   Si       0.25506    0.22539    0.37395    1.000
    N1409    N        0.26382    0.18966    0.45973    1.000
    N1410    N        0.22718    0.26032    0.37676    1.000
    Si1411   Si       0.27434    0.20496    0.49822    1.000
    Si1412   Si       0.25394    0.08288    0.56834    1.000
    N1413    N        0.24147    0.11451    0.54016    1.000
    Si1414   Si       0.26823    0.09469    0.50974    1.000
    N1415    N        0.27530    0.06423    0.53603    1.000
    N1416    N        0.27681    0.10031    0.60097    1.000
    Si1417   Si       0.22921    0.03316    0.60714    1.000
    N1418    N        0.23840    0.22743    0.50816    1.000
    N1419    N        0.25697    0.21330    0.57158    1.000
    Si1420   Si       0.26476    0.19540    0.61379    1.000
    Si1421   Si       0.27640    0.25172    0.57821    1.000
    Si1422   Si       0.22442    0.21003    0.54544    1.000
    Si1423   Si       0.24982    0.09401    0.70705    1.000
    N1424    N        0.24859    0.05529    0.64050    1.000
    Si1425   Si       0.28248    0.08285    0.64088    1.000
    N1426    N        0.24824    0.25065    0.68546    1.000
    N1427    N        0.24400    0.13291    0.72886    1.000
    Si1428   Si       0.27241    0.25626    0.65067    1.000
    Si1429   Si       0.23551    0.22196    0.71750    1.000
    N1430    N        0.22038    0.20403    0.62567    1.000
    Si1431   Si       0.26752    0.08712    0.82725    1.000
    Si1432   Si       0.24781    0.04411    0.77585    1.000
    N1433    N        0.23712    0.06040    0.81471    1.000
    N1434    N        0.26055    0.12461    0.80491    1.000
    Si1435   Si       0.26845    0.11817    0.76163    1.000
    N1436    N        0.27892    0.01712    0.78967    1.000
    N1437    N        0.25674    0.09832    0.86723    1.000
    N1438    N        0.26139    0.07680    0.74897    1.000
    Si1439   Si       0.23878    0.21278    0.78407    1.000
    N1440    N        0.23884    0.18967    0.81854    1.000
    N1441    N        0.26752    0.21433    0.74688    1.000
    N1442    N        0.25152    0.03111    0.96974    1.000
    N1443    N        0.26474    0.08427    0.93559    1.000
    Si1444   Si       0.27688    0.10927    0.90160    1.000
    N1445    N        0.25813    0.21726    0.87850    1.000
    N1446    N        0.24480    0.19429    0.95145    1.000
    Si1447   Si       0.28131    0.17213    0.95204    1.000
    Si1448   Si       0.22692    0.19972    0.99100    1.000
    Si1449   Si       0.23706    0.22034    0.91759    1.000
    Si1450   Si       0.26616    0.27628    0.06498    1.000
    N1451    N        0.25703    0.36237    0.01036    1.000
    N1452    N        0.25266    0.28293    0.10703    1.000
    N1453    N        0.22939    0.28742    0.04120    1.000
    N1454    N        0.25645    0.35371    0.11568    1.000
    Si1455   Si       0.24193    0.27708    0.99904    1.000
    Si1456   Si       0.23089    0.31704    0.11932    1.000
    Si1457   Si       0.26751    0.38622    0.08784    1.000
    N1458    N        0.23214    0.39291    0.06327    1.000
    Si1459   Si       0.24910    0.40341    0.02409    1.000
    N1460    N        0.24255    0.48721    0.06253    1.000
    N1461    N        0.27556    0.42335    0.10992    1.000
    Si1462   Si       0.23034    0.49926    0.10324    1.000
    N1463    N        0.27869    0.43418    0.03362    1.000
    Si1464   Si       0.28022    0.47358    0.04954    1.000
    Si1465   Si       0.24049    0.30402    0.19247    1.000
    N1466    N        0.24860    0.26380    0.17894    1.000
    Si1467   Si       0.23462    0.36740    0.15301    1.000
    Si1468   Si       0.26805    0.33406    0.24376    1.000
    N1469    N        0.22948    0.31072    0.23657    1.000
    N1470    N        0.27900    0.32695    0.20092    1.000
    N1471    N        0.26361    0.37788    0.24427    1.000
    N1472    N        0.22189    0.32650    0.16135    1.000
    N1473    N        0.24600    0.40451    0.17312    1.000
    Si1474   Si       0.25911    0.40991    0.21401    1.000
    N1475    N        0.24050    0.48249    0.22727    1.000
    Si1476   Si       0.24109    0.42920    0.13772    1.000
    Si1477   Si       0.28507    0.48121    0.21652    1.000
    Si1478   Si       0.24074    0.36330    0.33519    1.000
    Si1479   Si       0.24074    0.28584    0.34495    1.000
    Si1480   Si       0.22191    0.27263    0.26117    1.000
    N1481    N        0.22268    0.32661    0.35136    1.000
    Si1482   Si       0.22706    0.46594    0.26808    1.000
    N1483    N        0.26564    0.48140    0.28742    1.000
    Si1484   Si       0.24571    0.48773    0.32441    1.000
    Si1485   Si       0.26497    0.42761    0.36356    1.000
    N1486    N        0.24344    0.46491    0.36173    1.000
    N1487    N        0.23567    0.39359    0.36600    1.000
    Si1488   Si       0.22280    0.38607    0.26277    1.000
    N1489    N        0.22557    0.42655    0.24398    1.000
    Si1490   Si       0.26149    0.36899    0.46766    1.000
    N1491    N        0.26442    0.28446    0.48757    1.000
    Si1492   Si       0.25646    0.29791    0.44637    1.000
    N1493    N        0.24017    0.33725    0.44680    1.000
    Si1494   Si       0.22461    0.26486    0.48975    1.000
    N1495    N        0.24485    0.40582    0.44964    1.000
    N1496    N        0.25085    0.46712    0.45656    1.000
    Si1497   Si       0.23314    0.45294    0.49505    1.000
    Si1498   Si       0.27473    0.43635    0.43572    1.000
    N1499    N        0.27715    0.32271    0.59876    1.000
    N1500    N        0.23097    0.36809    0.60827    1.000
    Si1501   Si       0.27659    0.36134    0.61680    1.000
    N1502    N        0.25834    0.37973    0.51133    1.000
    N1503    N        0.25016    0.26378    0.61345    1.000
    Si1504   Si       0.24007    0.30523    0.61550    1.000
    N1505    N        0.23503    0.41909    0.56587    1.000
    Si1506   Si       0.26160    0.45388    0.56032    1.000
    N1507    N        0.27121    0.45212    0.51733    1.000
    Si1508   Si       0.23673    0.41119    0.61007    1.000
    N1509    N        0.23275    0.48395    0.57158    1.000
    N1510    N        0.24170    0.30992    0.65919    1.000
    Si1511   Si       0.25146    0.34209    0.73168    1.000
    N1512    N        0.24550    0.37199    0.69914    1.000
    N1513    N        0.22528    0.30925    0.72877    1.000
    Si1514   Si       0.28226    0.32057    0.67511    1.000
    Si1515   Si       0.24323    0.49950    0.69990    1.000
    N1516    N        0.27245    0.40868    0.63773    1.000
    Si1517   Si       0.27726    0.39013    0.67819    1.000
    N1518    N        0.24873    0.48101    0.73884    1.000
    N1519    N        0.28315    0.49448    0.68556    1.000
    N1520    N        0.25210    0.35020    0.77457    1.000
    N1521    N        0.27677    0.35139    0.83774    1.000
    N1522    N        0.27454    0.27666    0.84814    1.000
    Si1523   Si       0.28016    0.26827    0.80601    1.000
    Si1524   Si       0.28106    0.31713    0.86366    1.000
    Si1525   Si       0.24597    0.38122    0.83886    1.000
    N1526    N        0.23912    0.25771    0.79083    1.000
    N1527    N        0.23657    0.46225    0.85932    1.000
    N1528    N        0.26256    0.41377    0.81559    1.000
    N1529    N        0.27335    0.48071    0.80456    1.000
    Si1530   Si       0.24278    0.45298    0.81561    1.000
    N1531    N        0.28098    0.26181    0.92072    1.000
    N1532    N        0.25139    0.32454    0.89792    1.000
    N1533    N        0.23614    0.30666    0.96592    1.000
    Si1534   Si       0.24591    0.29092    0.92610    1.000
    Si1535   Si       0.25874    0.36601    0.90538    1.000
    Si1536   Si       0.23247    0.34901    0.97534    1.000
    N1537    N        0.24687    0.37702    0.94583    1.000
    N1538    N        0.24098    0.39351    0.87900    1.000
    Si1539   Si       0.24052    0.42011    0.95027    1.000
    N1540    N        0.27956    0.43874    0.94080    1.000
    Si1541   Si       0.24854    0.49844    0.87697    1.000
    N1542    N        0.26033    0.50466    0.96076    1.000
    Si1543   Si       0.24931    0.57379    0.11192    1.000
    N1544    N        0.26324    0.55959    0.00982    1.000
    N1545    N        0.26746    0.58717    0.07636    1.000
    N1546    N        0.26623    0.62409    0.00936    1.000
    Si1547   Si       0.28154    0.58992    0.03492    1.000
    N1548    N        0.25531    0.52842    0.12082    1.000
    N1549    N        0.24995    0.73412    0.02303    1.000
    Si1550   Si       0.25232    0.70368    0.05256    1.000
    N1551    N        0.23005    0.71868    0.08828    1.000
    Si1552   Si       0.22650    0.64175    0.01465    1.000
    N1553    N        0.28274    0.68427    0.11721    1.000
    Si1554   Si       0.25331    0.60706    0.18238    1.000
    Si1555   Si       0.24452    0.52518    0.22243    1.000
    N1556    N        0.26878    0.57997    0.15247    1.000
    N1557    N        0.26973    0.60413    0.22359    1.000
    N1558    N        0.27594    0.51740    0.19187    1.000
    Si1559   Si       0.28151    0.53881    0.15363    1.000
    N1560    N        0.27861    0.75262    0.12910    1.000
    N1561    N        0.27047    0.64587    0.17835    1.000
    Si1562   Si       0.28204    0.64982    0.22363    1.000
    N1563    N        0.24943    0.68305    0.22864    1.000
    N1564    N        0.22765    0.70994    0.15949    1.000
    N1565    N        0.24614    0.75191    0.21699    1.000
    Si1566   Si       0.25475    0.71540    0.12506    1.000
    Si1567   Si       0.25042    0.71439    0.19643    1.000
    Si1568   Si       0.26124    0.58503    0.26035    1.000
    N1569    N        0.23686    0.52995    0.32685    1.000
    N1570    N        0.27057    0.57438    0.36319    1.000
    Si1571   Si       0.27494    0.55637    0.32398    1.000
    N1572    N        0.26584    0.54002    0.25576    1.000
    N1573    N        0.27315    0.70893    0.30404    1.000
    Si1574   Si       0.26358    0.66775    0.29768    1.000
    Si1575   Si       0.26416    0.72956    0.34306    1.000
    N1576    N        0.23001    0.70661    0.35733    1.000
    Si1577   Si       0.26246    0.50867    0.45416    1.000
    Si1578   Si       0.23442    0.59988    0.36992    1.000
    N1579    N        0.25113    0.53790    0.42459    1.000
    N1580    N        0.25026    0.61703    0.40722    1.000
    N1581    N        0.26813    0.52752    0.49319    1.000
    N1582    N        0.24816    0.70344    0.43287    1.000
    Si1583   Si       0.23562    0.68931    0.47110    1.000
    N1584    N        0.22589    0.64553    0.47087    1.000
    Si1585   Si       0.27662    0.73602    0.42216    1.000
    Si1586   Si       0.25783    0.59522    0.55732    1.000
    N1587    N        0.24130    0.55180    0.55805    1.000
    Si1588   Si       0.23711    0.54973    0.51381    1.000
    Si1589   Si       0.25097    0.52074    0.58763    1.000
    N1590    N        0.24215    0.59517    0.51174    1.000
    Si1591   Si       0.26065    0.63420    0.49914    1.000
    N1592    N        0.22292    0.53791    0.61825    1.000
    N1593    N        0.27216    0.63629    0.54473    1.000
    N1594    N        0.26618    0.68479    0.50415    1.000
    Si1595   Si       0.25334    0.67665    0.54707    1.000
    N1596    N        0.28024    0.70185    0.57364    1.000
    N1597    N        0.26375    0.64172    0.62054    1.000
    Si1598   Si       0.22163    0.64463    0.60510    1.000
    Si1599   Si       0.25206    0.57624    0.71251    1.000
    Si1600   Si       0.27518    0.61327    0.65048    1.000
    N1601    N        0.24268    0.60360    0.67838    1.000
    N1602    N        0.23026    0.53976    0.70744    1.000
    Si1603   Si       0.23537    0.70259    0.71887    1.000
    N1604    N        0.26082    0.73517    0.70378    1.000
    N1605    N        0.24417    0.67236    0.68941    1.000
    N1606    N        0.25872    0.53383    0.85241    1.000
    Si1607   Si       0.25277    0.59454    0.78786    1.000
    Si1608   Si       0.25529    0.52269    0.80961    1.000
    N1609    N        0.27383    0.55626    0.78891    1.000
    N1610    N        0.22493    0.58817    0.82372    1.000
    N1611    N        0.27687    0.63091    0.86430    1.000
    N1612    N        0.23399    0.59495    0.74743    1.000
    Si1613   Si       0.22457    0.56168    0.85914    1.000
    Si1614   Si       0.22474    0.72896    0.78271    1.000
    N1615    N        0.26129    0.63555    0.79579    1.000
    Si1616   Si       0.25118    0.65080    0.83554    1.000
    N1617    N        0.24706    0.69677    0.76155    1.000
    N1618    N        0.27293    0.68747    0.82878    1.000
    Si1619   Si       0.27778    0.67550    0.78579    1.000
    Si1620   Si       0.22691    0.74637    0.84398    1.000
    Si1621   Si       0.26414    0.60744    0.89819    1.000
    Si1622   Si       0.22191    0.51883    0.94740    1.000
    N1623    N        0.22721    0.58485    0.89432    1.000
    N1624    N        0.26069    0.63419    0.93294    1.000
    N1625    N        0.25407    0.73499    0.87658    1.000
    N1626    N        0.23049    0.71597    0.94285    1.000
    Si1627   Si       0.24506    0.67370    0.94990    1.000
    Si1628   Si       0.25366    0.74494    0.91880    1.000
    N1629    N        0.25008    0.84931    0.04419    1.000
    Si1630   Si       0.25188    0.82940    0.08293    1.000
    N1631    N        0.25110    0.78510    0.07690    1.000
    Si1632   Si       0.25177    0.82244    0.00937    1.000
    N1633    N        0.22287    0.84103    0.11096    1.000
    Si1634   Si       0.26866    0.88842    0.04949    1.000
    N1635    N        0.23977    0.91012    0.07380    1.000
    N1636    N        0.27330    0.91157    0.01113    1.000
    N1637    N        0.23453    0.97519    0.01337    1.000
    Si1638   Si       0.25229    0.91305    0.11688    1.000
    Si1639   Si       0.26505    0.00271    0.99990    1.000
    N1640    N        0.22811    0.00180    0.07781    1.000
    N1641    N        0.27073    0.95191    0.12279    1.000
    N1642    N        0.26833    0.81587    0.23743    1.000
    Si1643   Si       0.23835    0.83605    0.21370    1.000
    N1644    N        0.24887    0.87261    0.19461    1.000
    Si1645   Si       0.28172    0.77634    0.22614    1.000
    Si1646   Si       0.25201    0.91191    0.21301    1.000
    N1647    N        0.23878    0.94169    0.18133    1.000
    Si1648   Si       0.24288    0.00105    0.23402    1.000
    Si1649   Si       0.26897    0.96890    0.16419    1.000
    N1650    N        0.26605    0.96449    0.24266    1.000
    N1651    N        0.28366    0.88883    0.13424    1.000
    N1652    N        0.25686    0.85709    0.30064    1.000
    Si1653   Si       0.25499    0.81533    0.32120    1.000
    N1654    N        0.25201    0.77134    0.33814    1.000
    N1655    N        0.26638    0.82791    0.36308    1.000
    N1656    N        0.24192    0.90701    0.25452    1.000
    Si1657   Si       0.25531    0.94205    0.27850    1.000
    N1658    N        0.28416    0.92538    0.30639    1.000
    N1659    N        0.24635    0.00763    0.34516    1.000
    Si1660   Si       0.24983    0.78929    0.37770    1.000
    N1661    N        0.24738    0.84066    0.43371    1.000
    Si1662   Si       0.26379    0.85748    0.39871    1.000
    Si1663   Si       0.24396    0.80225    0.45368    1.000
    Si1664   Si       0.24634    0.86073    0.47360    1.000
    N1665    N        0.26988    0.77961    0.41622    1.000
    N1666    N        0.28108    0.87934    0.49064    1.000
    N1667    N        0.22951    0.82442    0.49461    1.000
    Si1668   Si       0.27277    0.93013    0.40294    1.000
    N1669    N        0.24961    0.89557    0.38534    1.000
    N1670    N        0.23147    0.94887    0.40849    1.000
    Si1671   Si       0.24322    0.97880    0.43854    1.000
    Si1672   Si       0.25519    0.80213    0.52692    1.000
    N1673    N        0.27204    0.76263    0.52239    1.000
    N1674    N        0.22929    0.80581    0.56268    1.000
    N1675    N        0.23719    0.92731    0.53514    1.000
    Si1676   Si       0.24342    0.89766    0.61253    1.000
    Si1677   Si       0.27917    0.92744    0.53554    1.000
    N1678    N        0.25698    0.00235    0.59718    1.000
    Si1679   Si       0.27777    0.83699    0.70304    1.000
    Si1680   Si       0.26065    0.79639    0.64000    1.000
    N1681    N        0.27100    0.79752    0.68344    1.000
    N1682    N        0.24398    0.85871    0.71217    1.000
    Si1683   Si       0.24242    0.77503    0.70979    1.000
    N1684    N        0.26017    0.75931    0.62126    1.000
    N1685    N        0.25875    0.79034    0.74695    1.000
    N1686    N        0.26557    0.98825    0.66332    1.000
    N1687    N        0.24113    0.92923    0.70628    1.000
    Si1688   Si       0.23960    0.97847    0.63116    1.000
    Si1689   Si       0.22971    0.89117    0.68860    1.000
    N1690    N        0.25562    0.98994    0.73026    1.000
    Si1691   Si       0.26864    0.96278    0.69846    1.000
    N1692    N        0.24909    0.82711    0.79997    1.000
    Si1693   Si       0.24578    0.86894    0.79401    1.000
    Si1694   Si       0.27671    0.79363    0.81045    1.000
    N1695    N        0.24796    0.75967    0.80775    1.000
    Si1696   Si       0.22396    0.79330    0.77354    1.000
    N1697    N        0.23884    0.89206    0.83077    1.000
    N1698    N        0.24849    0.94875    0.79662    1.000
    Si1699   Si       0.26981    0.97946    0.77053    1.000
    N1700    N        0.22847    0.94956    0.87023    1.000
    Si1701   Si       0.22487    0.93297    0.82975    1.000
    Si1702   Si       0.23090    0.88037    0.87158    1.000
    N1703    N        0.24079    0.83627    0.87564    1.000
    N1704    N        0.26574    0.84362    0.97454    1.000
    N1705    N        0.24635    0.78721    0.92207    1.000
    Si1706   Si       0.27586    0.81528    0.94209    1.000
    Si1707   Si       0.23838    0.93566    0.99275    1.000
    N1708    N        0.23154    0.94064    0.94700    1.000
    Si1709   Si       0.27562    0.00631    0.89905    1.000
    Si1710   Si       0.25101    0.93860    0.90701    1.000
    N1711    N        0.26167    0.89778    0.89874    1.000
    N1712    N        0.23228    0.01059    0.90459    1.000
    N1713    N        0.31640    0.06904    0.06042    1.000
    Si1714   Si       0.32232    0.04882    0.02060    1.000
    Si1715   Si       0.33180    0.04108    0.08982    1.000
    N1716    N        0.29546    0.11948    0.10980    1.000
    N1717    N        0.29736    0.01174    0.09569    1.000
    Si1718   Si       0.28401    0.09667    0.07348    1.000
    Si1719   Si       0.31345    0.23011    0.10236    1.000
    Si1720   Si       0.31823    0.15508    0.10045    1.000
    N1721    N        0.31448    0.16183    0.05729    1.000
    N1722    N        0.28742    0.23846    0.07018    1.000
    Si1723   Si       0.31852    0.07243    0.16196    1.000
    Si1724   Si       0.30689    0.04204    0.22367    1.000
    Si1725   Si       0.31073    0.11569    0.22291    1.000
    N1726    N        0.32731    0.10983    0.18424    1.000
    N1727    N        0.33437    0.04542    0.19067    1.000
    N1728    N        0.34028    0.06391    0.12640    1.000
    N1729    N        0.30727    0.19023    0.12064    1.000
    N1730    N        0.33079    0.14807    0.24337    1.000
    N1731    N        0.30316    0.25225    0.14022    1.000
    Si1732   Si       0.32269    0.23882    0.17864    1.000
    N1733    N        0.29118    0.20890    0.18686    1.000
    Si1734   Si       0.31568    0.07676    0.29123    1.000
    N1735    N        0.32587    0.11611    0.30855    1.000
    Si1736   Si       0.28797    0.02230    0.33554    1.000
    Si1737   Si       0.31228    0.12964    0.34955    1.000
    N1738    N        0.32764    0.09514    0.37001    1.000
    N1739    N        0.30812    0.07890    0.24842    1.000
    N1740    N        0.28276    0.05959    0.31468    1.000
    N1741    N        0.29187    0.17074    0.30284    1.000
    Si1742   Si       0.32729    0.15448    0.28571    1.000
    N1743    N        0.31346    0.23099    0.27397    1.000
    Si1744   Si       0.30267    0.21299    0.31219    1.000
    N1745    N        0.33537    0.23154    0.33800    1.000
    N1746    N        0.33349    0.16484    0.36396    1.000
    N1747    N        0.29871    0.06921    0.43096    1.000
    N1748    N        0.29647    0.11730    0.48788    1.000
    N1749    N        0.30507    0.02544    0.37595    1.000
    Si1750   Si       0.32263    0.06101    0.39489    1.000
    N1751    N        0.28410    0.01668    0.48397    1.000
    Si1752   Si       0.33172    0.20902    0.37414    1.000
    N1753    N        0.29579    0.22854    0.39227    1.000
    Si1754   Si       0.30110    0.03351    0.52018    1.000
    N1755    N        0.32891    0.11831    0.54829    1.000
    Si1756   Si       0.31105    0.12615    0.58974    1.000
    N1757    N        0.33904    0.05608    0.51039    1.000
    N1758    N        0.34071    0.11892    0.61967    1.000
    Si1759   Si       0.31798    0.14401    0.51428    1.000
    Si1760   Si       0.30444    0.19265    0.56555    1.000
    N1761    N        0.31390    0.23287    0.58285    1.000
    N1762    N        0.29073    0.16398    0.59470    1.000
    N1763    N        0.29071    0.17564    0.52658    1.000
    N1764    N        0.30937    0.23054    0.50131    1.000
    N1765    N        0.31442    0.05549    0.63659    1.000
    Si1766   Si       0.31844    0.11577    0.70647    1.000
    Si1767   Si       0.30113    0.01463    0.64750    1.000
    N1768    N        0.32952    0.01431    0.68327    1.000
    N1769    N        0.28348    0.09913    0.68330    1.000
    N1770    N        0.34113    0.14859    0.68714    1.000
    N1771    N        0.28950    0.21500    0.64292    1.000
    Si1772   Si       0.33256    0.21622    0.64641    1.000
    N1773    N        0.30605    0.06965    0.83065    1.000
    Si1774   Si       0.30917    0.02771    0.82109    1.000
    Si1775   Si       0.33571    0.08345    0.85724    1.000
    N1776    N        0.31103    0.12882    0.75085    1.000
    N1777    N        0.33497    0.17238    0.81727    1.000
    Si1778   Si       0.30983    0.22551    0.75783    1.000
    N1779    N        0.30754    0.23526    0.80274    1.000
    N1780    N        0.32885    0.24330    0.86513    1.000
    Si1781   Si       0.33683    0.15561    0.77669    1.000
    Si1782   Si       0.33680    0.21729    0.82860    1.000
    N1783    N        0.33542    0.19026    0.74981    1.000
    N1784    N        0.31886    0.10003    0.89200    1.000
    N1785    N        0.30384    0.02283    0.92864    1.000
    Si1786   Si       0.32216    0.11941    0.98652    1.000
    N1787    N        0.31136    0.07769    0.98600    1.000
    N1788    N        0.33434    0.01638    0.98899    1.000
    Si1789   Si       0.28836    0.05387    0.95678    1.000
    Si1790   Si       0.33891    0.02401    0.90354    1.000
    N1791    N        0.31064    0.20520    0.95404    1.000
    N1792    N        0.28900    0.15081    0.99054    1.000
    Si1793   Si       0.32683    0.14077    0.90815    1.000
    N1794    N        0.33637    0.13934    0.95185    1.000
    N1795    N        0.28475    0.14955    0.91615    1.000
    Si1796   Si       0.28762    0.24875    0.87895    1.000
    Si1797   Si       0.30155    0.24737    0.95640    1.000
    N1798    N        0.29858    0.36817    0.06529    1.000
    Si1799   Si       0.29147    0.34297    0.03031    1.000
    Si1800   Si       0.31935    0.28814    0.00786    1.000
    N1801    N        0.29473    0.30178    0.04559    1.000
    Si1802   Si       0.33520    0.37840    0.08211    1.000
    N1803    N        0.31912    0.33151    0.99639    1.000
    N1804    N        0.31228    0.48012    0.08114    1.000
    Si1805   Si       0.31391    0.44347    0.10439    1.000
    Si1806   Si       0.33595    0.50087    0.04876    1.000
    N1807    N        0.29971    0.50372    0.02538    1.000
    Si1808   Si       0.33347    0.49925    0.11694    1.000
    N1809    N        0.31795    0.26741    0.21163    1.000
    Si1810   Si       0.31629    0.30947    0.21363    1.000
    N1811    N        0.32739    0.46134    0.13946    1.000
    N1812    N        0.29111    0.44147    0.20359    1.000
    Si1813   Si       0.32678    0.44186    0.17932    1.000
    N1814    N        0.31755    0.49209    0.24443    1.000
    N1815    N        0.33706    0.39921    0.17637    1.000
    Si1816   Si       0.30823    0.32490    0.34948    1.000
    N1817    N        0.33221    0.37071    0.28601    1.000
    Si1818   Si       0.33330    0.32695    0.28172    1.000
    N1819    N        0.30146    0.30948    0.25682    1.000
    Si1820   Si       0.29748    0.26239    0.25110    1.000
    N1821    N        0.34112    0.30987    0.32192    1.000
    N1822    N        0.28296    0.28998    0.35731    1.000
    N1823    N        0.28223    0.35420    0.32763    1.000
    Si1824   Si       0.30978    0.38770    0.31792    1.000
    N1825    N        0.28602    0.42081    0.32655    1.000
    Si1826   Si       0.30305    0.27163    0.39036    1.000
    Si1827   Si       0.31778    0.33234    0.42679    1.000
    N1828    N        0.29264    0.29481    0.42519    1.000
    N1829    N        0.31231    0.34834    0.38692    1.000
    N1830    N        0.30395    0.35183    0.46432    1.000
    N1831    N        0.33521    0.29312    0.49044    1.000
    Si1832   Si       0.32709    0.33395    0.49626    1.000
    Si1833   Si       0.32197    0.39301    0.38785    1.000
    Si1834   Si       0.33687    0.50804    0.41692    1.000
    N1835    N        0.29018    0.42525    0.39778    1.000
    N1836    N        0.31223    0.43784    0.46098    1.000
    N1837    N        0.30624    0.50656    0.44780    1.000
    Si1838   Si       0.30221    0.31425    0.56583    1.000
    N1839    N        0.30846    0.34116    0.53327    1.000
    Si1840   Si       0.30075    0.27169    0.50672    1.000
    N1841    N        0.28384    0.27921    0.54558    1.000
    Si1842   Si       0.29091    0.38000    0.53965    1.000
    N1843    N        0.34039    0.29909    0.57706    1.000
    N1844    N        0.29511    0.38530    0.58427    1.000
    Si1845   Si       0.31241    0.44604    0.50381    1.000
    N1846    N        0.33093    0.48785    0.51509    1.000
    N1847    N        0.32277    0.40753    0.52622    1.000
    Si1848   Si       0.31703    0.48525    0.60168    1.000
    Si1849   Si       0.30822    0.41659    0.60986    1.000
    N1850    N        0.29335    0.45149    0.58961    1.000
    N1851    N        0.28856    0.32237    0.71765    1.000
    N1852    N        0.30114    0.28696    0.65680    1.000
    N1853    N        0.29803    0.35579    0.65624    1.000
    Si1854   Si       0.33559    0.37754    0.66486    1.000
    N1855    N        0.32703    0.26162    0.74027    1.000
    Si1856   Si       0.31462    0.30261    0.74663    1.000
    Si1857   Si       0.33404    0.42691    0.72651    1.000
    N1858    N        0.31651    0.40187    0.69533    1.000
    N1859    N        0.33120    0.46851    0.64118    1.000
    Si1860   Si       0.32448    0.48812    0.68056    1.000
    N1861    N        0.33992    0.46851    0.71577    1.000
    N1862    N        0.29805    0.30428    0.78855    1.000
    N1863    N        0.31811    0.37588    0.78884    1.000
    Si1864   Si       0.28901    0.34474    0.79742    1.000
    N1865    N        0.32591    0.43472    0.83418    1.000
    N1866    N        0.30572    0.43682    0.76038    1.000
    Si1867   Si       0.30551    0.41702    0.80010    1.000
    Si1868   Si       0.28376    0.47499    0.76220    1.000
    N1869    N        0.32168    0.31418    0.87907    1.000
    N1870    N        0.30049    0.37786    0.90777    1.000
    Si1871   Si       0.33438    0.34991    0.89853    1.000
    N1872    N        0.28375    0.26398    0.99311    1.000
    N1873    N        0.28631    0.50052    0.89620    1.000
    Si1874   Si       0.31184    0.41080    0.93269    1.000
    N1875    N        0.32587    0.48573    0.95145    1.000
    Si1876   Si       0.28633    0.48026    0.93549    1.000
    N1877    N        0.33056    0.39919    0.96978    1.000
    N1878    N        0.32380    0.59153    0.03332    1.000
    Si1879   Si       0.30300    0.68476    0.00942    1.000
    Si1880   Si       0.31406    0.68006    0.08714    1.000
    N1881    N        0.31416    0.72756    0.00407    1.000
    N1882    N        0.33058    0.64057    0.08644    1.000
    N1883    N        0.29186    0.68600    0.05000    1.000
    Si1884   Si       0.28867    0.75306    0.02784    1.000
    N1885    N        0.33592    0.65446    0.01457    1.000
    N1886    N        0.30705    0.75289    0.06693    1.000
    N1887    N        0.32377    0.53148    0.14255    1.000
    N1888    N        0.32678    0.65204    0.21497    1.000
    Si1889   Si       0.31054    0.74669    0.16010    1.000
    N1890    N        0.29135    0.71044    0.18010    1.000
    Si1891   Si       0.29656    0.67448    0.15818    1.000
    N1892    N        0.33818    0.66343    0.14797    1.000
    N1893    N        0.30852    0.53104    0.31222    1.000
    Si1894   Si       0.31096    0.62104    0.30021    1.000
    Si1895   Si       0.33658    0.52234    0.34436    1.000
    N1896    N        0.33819    0.61648    0.33576    1.000
    Si1897   Si       0.29422    0.51291    0.27542    1.000
    N1898    N        0.28061    0.59005    0.29803    1.000
    Si1899   Si       0.33426    0.65948    0.25710    1.000
    N1900    N        0.32307    0.74335    0.32395    1.000
    Si1901   Si       0.31126    0.72756    0.28542    1.000
    Si1902   Si       0.31924    0.64798    0.35902    1.000
    Si1903   Si       0.32833    0.72522    0.36179    1.000
    N1904    N        0.33938    0.69910    0.27379    1.000
    N1905    N        0.29095    0.64877    0.26718    1.000
    N1906    N        0.28768    0.64973    0.32909    1.000
    N1907    N        0.30831    0.57531    0.42144    1.000
    N1908    N        0.31254    0.51778    0.38301    1.000
    N1909    N        0.29028    0.62248    0.46778    1.000
    Si1910   Si       0.29031    0.61576    0.42356    1.000
    N1911    N        0.33549    0.55330    0.48685    1.000
    Si1912   Si       0.31136    0.51927    0.49134    1.000
    Si1913   Si       0.28307    0.54883    0.39832    1.000
    N1914    N        0.28917    0.72897    0.37987    1.000
    Si1915   Si       0.33087    0.62770    0.48064    1.000
    Si1916   Si       0.30373    0.70124    0.48795    1.000
    N1917    N        0.31949    0.63581    0.39972    1.000
    N1918    N        0.33335    0.67329    0.47713    1.000
    N1919    N        0.30175    0.73754    0.46059    1.000
    N1920    N        0.29841    0.58598    0.57431    1.000
    Si1921   Si       0.31411    0.62372    0.55503    1.000
    Si1922   Si       0.31434    0.56025    0.60495    1.000
    N1923    N        0.29346    0.52088    0.59628    1.000
    N1924    N        0.33850    0.61138    0.52092    1.000
    N1925    N        0.32453    0.65417    0.58281    1.000
    N1926    N        0.32114    0.72308    0.52014    1.000
    Si1927   Si       0.29169    0.73533    0.55058    1.000
    Si1928   Si       0.29015    0.67052    0.60298    1.000
    Si1929   Si       0.29601    0.73854    0.61646    1.000
    Si1930   Si       0.31906    0.56610    0.68238    1.000
    N1931    N        0.29603    0.56880    0.72148    1.000
    N1932    N        0.29625    0.57419    0.64403    1.000
    Si1933   Si       0.30005    0.74588    0.69003    1.000
    N1934    N        0.29710    0.69749    0.63744    1.000
    Si1935   Si       0.28477    0.67931    0.67706    1.000
    N1936    N        0.31671    0.70462    0.69708    1.000
    N1937    N        0.30077    0.64093    0.67364    1.000
    Si1938   Si       0.33725    0.68737    0.73062    1.000
    N1939    N        0.31945    0.75367    0.65161    1.000
    Si1940   Si       0.30755    0.55243    0.76131    1.000
    N1941    N        0.31235    0.50852    0.75758    1.000
    N1942    N        0.33852    0.54041    0.85912    1.000
    N1943    N        0.31714    0.68407    0.77043    1.000
    N1944    N        0.32018    0.73462    0.85040    1.000
    N1945    N        0.33982    0.67217    0.84137    1.000
    Si1946   Si       0.28642    0.70865    0.86364    1.000
    Si1947   Si       0.31563    0.64980    0.87088    1.000
    Si1948   Si       0.29835    0.53844    0.87669    1.000
    N1949    N        0.32232    0.54815    0.97828    1.000
    Si1950   Si       0.32977    0.59401    0.92154    1.000
    N1951    N        0.32632    0.62191    0.95681    1.000
    N1952    N        0.29373    0.57474    0.90362    1.000
    Si1953   Si       0.28627    0.52709    0.99192    1.000
    Si1954   Si       0.28632    0.62973    0.97010    1.000
    N1955    N        0.29524    0.73788    0.93675    1.000
    N1956    N        0.30234    0.68415    0.89632    1.000
    N1957    N        0.28548    0.67539    0.97112    1.000
    Si1958   Si       0.30872    0.69578    0.93731    1.000
    Si1959   Si       0.30785    0.86278    0.10885    1.000
    N1960    N        0.31897    0.85534    0.00833    1.000
    Si1961   Si       0.29187    0.78094    0.09842    1.000
    Si1962   Si       0.33782    0.85912    0.04781    1.000
    N1963    N        0.29020    0.82554    0.10207    1.000
    N1964    N        0.28554    0.79517    0.01454    1.000
    N1965    N        0.33399    0.77982    0.11669    1.000
    N1966    N        0.30670    0.88064    0.06875    1.000
    Si1967   Si       0.32159    0.81254    0.99604    1.000
    N1968    N        0.34353    0.96289    0.11811    1.000
    N1969    N        0.33998    0.93262    0.00302    1.000
    N1970    N        0.30239    0.95798    0.05688    1.000
    Si1971   Si       0.30092    0.94421    0.01744    1.000
    Si1972   Si       0.30118    0.96791    0.09836    1.000
    N1973    N        0.31440    0.84664    0.18104    1.000
    N1974    N        0.30720    0.77806    0.18985    1.000
    Si1975   Si       0.33418    0.81240    0.19631    1.000
    N1976    N        0.33461    0.81533    0.23963    1.000
    Si1977   Si       0.28703    0.87889    0.17575    1.000
    N1978    N        0.29612    0.90732    0.21011    1.000
    N1979    N        0.30920    0.96635    0.18258    1.000
    Si1980   Si       0.32981    0.89748    0.23687    1.000
    Si1981   Si       0.30860    0.96493    0.22844    1.000
    Si1982   Si       0.34600    0.95475    0.16366    1.000
    N1983    N        0.31854    0.00569    0.24408    1.000
    N1984    N        0.29902    0.81161    0.30453    1.000
    N1985    N        0.31383    0.87190    0.26821    1.000
    Si1986   Si       0.29899    0.83122    0.26400    1.000
    N1987    N        0.31553    0.87278    0.34202    1.000
    Si1988   Si       0.33328    0.78667    0.31980    1.000
    Si1989   Si       0.30964    0.83506    0.36255    1.000
    N1990    N        0.33511    0.80004    0.36000    1.000
    N1991    N        0.30857    0.76081    0.25817    1.000
    Si1992   Si       0.29304    0.88183    0.30713    1.000
    Si1993   Si       0.31002    0.94834    0.33036    1.000
    N1994    N        0.31153    0.99127    0.31484    1.000
    N1995    N        0.33482    0.93916    0.25337    1.000
    Si1996   Si       0.33795    0.00676    0.28374    1.000
    N1997    N        0.28692    0.80104    0.47038    1.000
    Si1998   Si       0.30464    0.76587    0.49184    1.000
    N1999    N        0.30665    0.84501    0.40770    1.000
    Si2000   Si       0.30584    0.80507    0.43117    1.000
    Si2001   Si       0.33185    0.88147    0.41933    1.000
    Si2002   Si       0.30928    0.98660    0.39651    1.000
    N2003    N        0.29496    0.95267    0.37259    1.000
    Si2004   Si       0.30196    0.91364    0.47372    1.000
    N2005    N        0.29643    0.90751    0.43100    1.000
    N2006    N        0.28797    0.97482    0.43220    1.000
    Si2007   Si       0.30348    0.98076    0.47541    1.000
    N2008    N        0.34580    0.98754    0.48119    1.000
    Si2009   Si       0.30450    0.85981    0.52351    1.000
    Si2010   Si       0.30986    0.80471    0.57730    1.000
    N2011    N        0.29085    0.82248    0.54164    1.000
    N2012    N        0.29253    0.82028    0.61614    1.000
    N2013    N        0.31738    0.75898    0.58055    1.000
    N2014    N        0.30723    0.89412    0.54865    1.000
    Si2015   Si       0.31271    0.91467    0.58654    1.000
    Si2016   Si       0.29488    0.98902    0.58322    1.000
    N2017    N        0.31986    0.98941    0.61703    1.000
    N2018    N        0.28687    0.89474    0.61449    1.000
    N2019    N        0.28996    0.94917    0.57276    1.000
    N2020    N        0.31748    0.00849    0.55245    1.000
    N2021    N        0.28912    0.94692    0.49898    1.000
    N2022    N        0.30775    0.85343    0.67296    1.000
    N2023    N        0.30716    0.83649    0.73602    1.000
    Si2024   Si       0.30808    0.85920    0.62923    1.000
    N2025    N        0.32588    0.76683    0.71976    1.000
    N2026    N        0.31116    0.94990    0.70067    1.000
    Si2027   Si       0.33114    0.94248    0.73941    1.000
    N2028    N        0.31361    0.78748    0.78696    1.000
    Si2029   Si       0.31906    0.86708    0.76171    1.000
    Si2030   Si       0.32702    0.77658    0.85931    1.000
    N2031    N        0.30657    0.86646    0.84780    1.000
    N2032    N        0.29157    0.79886    0.85035    1.000
    Si2033   Si       0.30304    0.79243    0.74596    1.000
    N2034    N        0.28357    0.88617    0.78001    1.000
    N2035    N        0.30563    0.95213    0.77085    1.000
    N2036    N        0.30534    0.93674    0.83784    1.000
    Si2037   Si       0.32894    0.90257    0.85089    1.000
    Si2038   Si       0.28620    0.92478    0.80024    1.000
    Si2039   Si       0.31073    0.96909    0.86631    1.000
    N2040    N        0.29450    0.01009    0.86036    1.000
    Si2041   Si       0.28479    0.83694    0.86907    1.000
    Si2042   Si       0.28966    0.87696    0.98643    1.000
    N2043    N        0.31373    0.80053    0.95455    1.000
    N2044    N        0.30050    0.84031    0.91110    1.000
    Si2045   Si       0.32987    0.76395    0.93915    1.000
    N2046    N        0.33867    0.78143    0.90040    1.000
    N2047    N        0.30711    0.89699    0.95452    1.000
    N2048    N        0.33310    0.90254    0.89450    1.000
    N2049    N        0.28969    0.96901    0.98225    1.000
    Si2050   Si       0.31866    0.98987    0.95758    1.000
    N2051    N        0.28607    0.96411    0.90161    1.000
    Si2052   Si       0.29979    0.88362    0.91473    1.000
    Si2053   Si       0.34015    0.92103    0.96150    1.000
    N2054    N        0.36938    0.05612    0.02324    1.000
    Si2055   Si       0.38673    0.09452    0.01271    1.000
    Si2056   Si       0.39336    0.04132    0.05586    1.000
    N2057    N        0.36599    0.01568    0.07817    1.000
    N2058    N        0.35572    0.12432    0.01538    1.000
    N2059    N        0.40078    0.06910    0.08808    1.000
    Si2060   Si       0.39574    0.15342    0.10411    1.000
    N2061    N        0.38653    0.16652    0.06248    1.000
    Si2062   Si       0.35363    0.16308    0.03548    1.000
    N2063    N        0.35579    0.23468    0.09787    1.000
    N2064    N        0.35588    0.19561    0.00647    1.000
    Si2065   Si       0.37347    0.23778    0.00777    1.000
    N2066    N        0.35697    0.14422    0.11981    1.000
    N2067    N        0.40083    0.23160    0.04271    1.000
    Si2068   Si       0.38344    0.07079    0.12644    1.000
    N2069    N        0.39090    0.10235    0.15525    1.000
    Si2070   Si       0.37209    0.02571    0.18767    1.000
    Si2071   Si       0.35912    0.13137    0.16194    1.000
    Si2072   Si       0.38390    0.22399    0.13106    1.000
    Si2073   Si       0.37084    0.16380    0.23009    1.000
    N2074    N        0.37977    0.15926    0.18689    1.000
    Si2075   Si       0.38950    0.22882    0.20239    1.000
    N2076    N        0.36775    0.20772    0.23380    1.000
    N2077    N        0.36374    0.23230    0.16881    1.000
    Si2078   Si       0.38690    0.04713    0.31220    1.000
    N2079    N        0.38077    0.02026    0.34582    1.000
    N2080    N        0.34704    0.04615    0.29478    1.000
    N2081    N        0.39324    0.08434    0.33127    1.000
    Si2082   Si       0.37196    0.09230    0.36697    1.000
    N2083    N        0.35999    0.18172    0.29092    1.000
    Si2084   Si       0.35417    0.21967    0.27304    1.000
    N2085    N        0.37688    0.25501    0.28114    1.000
    Si2086   Si       0.40207    0.17023    0.29116    1.000
    N2087    N        0.38819    0.05292    0.46708    1.000
    N2088    N        0.36823    0.06471    0.40165    1.000
    Si2089   Si       0.36455    0.02563    0.49086    1.000
    N2090    N        0.39614    0.12697    0.38068    1.000
    Si2091   Si       0.37672    0.15691    0.46439    1.000
    N2092    N        0.35647    0.14411    0.42872    1.000
    N2093    N        0.34917    0.16913    0.49364    1.000
    N2094    N        0.36767    0.20283    0.39811    1.000
    Si2095   Si       0.36619    0.15797    0.39068    1.000
    Si2096   Si       0.39561    0.22326    0.42483    1.000
    Si2097   Si       0.35302    0.08156    0.54221    1.000
    Si2098   Si       0.35885    0.02004    0.56325    1.000
    N2099    N        0.35365    0.05870    0.57904    1.000
    N2100    N        0.38595    0.01401    0.52772    1.000
    N2101    N        0.39444    0.08495    0.53318    1.000
    Si2102   Si       0.35032    0.07631    0.61914    1.000
    N2103    N        0.38794    0.23726    0.58305    1.000
    Si2104   Si       0.37393    0.19459    0.58719    1.000
    N2105    N        0.34723    0.18828    0.55339    1.000
    N2106    N        0.37550    0.23596    0.50328    1.000
    Si2107   Si       0.34558    0.20592    0.51244    1.000
    Si2108   Si       0.35015    0.25771    0.58954    1.000
    N2109    N        0.38870    0.03612    0.71215    1.000
    Si2110   Si       0.35779    0.04727    0.68450    1.000
    Si2111   Si       0.38337    0.07433    0.73396    1.000
    N2112    N        0.37705    0.06541    0.65121    1.000
    N2113    N        0.34499    0.08301    0.71108    1.000
    Si2114   Si       0.35677    0.18241    0.71244    1.000
    N2115    N        0.35154    0.25368    0.63287    1.000
    Si2116   Si       0.35894    0.25188    0.71123    1.000
    Si2117   Si       0.35725    0.14841    0.64677    1.000
    N2118    N        0.34617    0.21680    0.68881    1.000
    N2119    N        0.39965    0.17630    0.71859    1.000
    N2120    N        0.35560    0.18651    0.62638    1.000
    N2121    N        0.40022    0.14536    0.64959    1.000
    N2122    N        0.36082    0.10872    0.83501    1.000
    Si2123   Si       0.38382    0.09834    0.79798    1.000
    N2124    N        0.37906    0.06364    0.77509    1.000
    Si2125   Si       0.38813    0.02402    0.78894    1.000
    N2126    N        0.35095    0.01432    0.81071    1.000
    N2127    N        0.35709    0.04782    0.87049    1.000
    Si2128   Si       0.37237    0.00897    0.84820    1.000
    N2129    N        0.37512    0.13441    0.77609    1.000
    Si2130   Si       0.36620    0.15008    0.84136    1.000
    N2131    N        0.37880    0.22959    0.82168    1.000
    N2132    N        0.36631    0.03017    0.93461    1.000
    Si2133   Si       0.37095    0.04007    0.98018    1.000
    N2134    N        0.38930    0.08042    0.96863    1.000
    N2135    N        0.38299    0.18384    0.94362    1.000
    Si2136   Si       0.34582    0.18207    0.96495    1.000
    N2137    N        0.35327    0.16007    0.88178    1.000
    Si2138   Si       0.39271    0.16485    0.90506    1.000
    Si2139   Si       0.37698    0.33656    0.09218    1.000
    N2140    N        0.36636    0.35753    0.05559    1.000
    N2141    N        0.38899    0.29519    0.08808    1.000
    N2142    N        0.35194    0.26819    0.03031    1.000
    Si2143   Si       0.39836    0.37221    0.03006    1.000
    N2144    N        0.34508    0.35529    0.11579    1.000
    Si2145   Si       0.37574    0.25777    0.06756    1.000
    Si2146   Si       0.37097    0.43791    0.05783    1.000
    N2147    N        0.35854    0.46890    0.02968    1.000
    N2148    N        0.39287    0.41408    0.02645    1.000
    N2149    N        0.34253    0.42091    0.08397    1.000
    N2150    N        0.38908    0.36713    0.17253    1.000
    Si2151   Si       0.34768    0.35885    0.15969    1.000
    Si2152   Si       0.38255    0.34358    0.21787    1.000
    N2153    N        0.34702    0.33112    0.19461    1.000
    N2154    N        0.40197    0.26777    0.21618    1.000
    Si2155   Si       0.37789    0.40313    0.19513    1.000
    N2156    N        0.36119    0.45300    0.20461    1.000
    Si2157   Si       0.35526    0.47007    0.24681    1.000
    N2158    N        0.38041    0.38521    0.23583    1.000
    Si2159   Si       0.35782    0.27159    0.33890    1.000
    N2160    N        0.36925    0.32018    0.25297    1.000
    Si2161   Si       0.39392    0.28559    0.25470    1.000
    N2162    N        0.39540    0.38840    0.30801    1.000
    Si2163   Si       0.38326    0.39382    0.34955    1.000
    Si2164   Si       0.36578    0.39743    0.27692    1.000
    N2165    N        0.36122    0.43980    0.27904    1.000
    Si2166   Si       0.38173    0.47252    0.30181    1.000
    N2167    N        0.35823    0.48615    0.33571    1.000
    N2168    N        0.38746    0.49417    0.26419    1.000
    N2169    N        0.39440    0.43196    0.36874    1.000
    N2170    N        0.34087    0.39125    0.35024    1.000
    Si2171   Si       0.37050    0.27155    0.47974    1.000
    Si2172   Si       0.38510    0.36841    0.42452    1.000
    N2173    N        0.35956    0.33101    0.42849    1.000
    Si2174   Si       0.37306    0.29509    0.41078    1.000
    N2175    N        0.34548    0.28099    0.38046    1.000
    N2176    N        0.37531    0.26058    0.43709    1.000
    Si2177   Si       0.35137    0.43653    0.43890    1.000
    N2178    N        0.38091    0.44051    0.46970    1.000
    N2179    N        0.35205    0.39806    0.42027    1.000
    N2180    N        0.35287    0.46997    0.40976    1.000
    Si2181   Si       0.37621    0.46976    0.37301    1.000
    Si2182   Si       0.37287    0.32485    0.58995    1.000
    N2183    N        0.36598    0.36487    0.57469    1.000
    N2184    N        0.36393    0.35818    0.49973    1.000
    Si2185   Si       0.35874    0.38435    0.53619    1.000
    Si2186   Si       0.36620    0.50092    0.53890    1.000
    N2187    N        0.38979    0.41309    0.54036    1.000
    N2188    N        0.39213    0.43978    0.60925    1.000
    Si2189   Si       0.37892    0.39697    0.60188    1.000
    N2190    N        0.35541    0.48938    0.57825    1.000
    N2191    N        0.36573    0.32332    0.63249    1.000
    N2192    N        0.35962    0.29029    0.69109    1.000
    Si2193   Si       0.37377    0.32525    0.71455    1.000
    N2194    N        0.37234    0.35860    0.68461    1.000
    Si2195   Si       0.34355    0.29096    0.65123    1.000
    N2196    N        0.34487    0.40430    0.63035    1.000
    N2197    N        0.38315    0.42802    0.67900    1.000
    N2198    N        0.37049    0.40226    0.74400    1.000
    Si2199   Si       0.36609    0.44368    0.64244    1.000
    Si2200   Si       0.39070    0.39512    0.70535    1.000
    N2201    N        0.39384    0.48607    0.65190    1.000
    Si2202   Si       0.35614    0.36628    0.76933    1.000
    N2203    N        0.38535    0.35193    0.79733    1.000
    N2204    N        0.37935    0.30284    0.84848    1.000
    Si2205   Si       0.38302    0.34689    0.84129    1.000
    N2206    N        0.35748    0.37032    0.86804    1.000
    Si2207   Si       0.39736    0.27085    0.82273    1.000
    Si2208   Si       0.35086    0.28329    0.87231    1.000
    N2209    N        0.34848    0.32997    0.74765    1.000
    N2210    N        0.38065    0.49562    0.83936    1.000
    Si2211   Si       0.36427    0.45855    0.82431    1.000
    N2212    N        0.36632    0.46046    0.78105    1.000
    N2213    N        0.38596    0.42950    0.84739    1.000
    Si2214   Si       0.35006    0.41521    0.86829    1.000
    Si2215   Si       0.39476    0.43403    0.76366    1.000
    Si2216   Si       0.35028    0.48952    0.75323    1.000
    Si2217   Si       0.36619    0.29555    0.94320    1.000
    N2218    N        0.37822    0.27748    0.90565    1.000
    N2219    N        0.38311    0.36834    0.98668    1.000
    N2220    N        0.35084    0.33657    0.93539    1.000
    Si2221   Si       0.34293    0.35544    0.97124    1.000
    N2222    N        0.33915    0.27267    0.96756    1.000
    Si2223   Si       0.35854    0.46423    0.93232    1.000
    N2224    N        0.36982    0.50044    0.91112    1.000
    Si2225   Si       0.38441    0.47592    0.99523    1.000
    N2226    N        0.37894    0.44644    0.96564    1.000
    Si2227   Si       0.37051    0.41155    0.98723    1.000
    N2228    N        0.34344    0.43229    0.90711    1.000
    Si2229   Si       0.37732    0.54970    0.07926    1.000
    N2230    N        0.35443    0.57765    0.10465    1.000
    N2231    N        0.36023    0.53639    0.04218    1.000
    Si2232   Si       0.34765    0.56322    0.01045    1.000
    N2233    N        0.38730    0.62769    0.04813    1.000
    N2234    N        0.37307    0.51067    0.10100    1.000
    N2235    N        0.39269    0.62862    0.11991    1.000
    Si2236   Si       0.34879    0.62178    0.12254    1.000
    N2237    N        0.38396    0.58253    0.99809    1.000
    Si2238   Si       0.34333    0.62777    0.04754    1.000
    N2239    N        0.38733    0.71108    0.01381    1.000
    N2240    N        0.34791    0.70855    0.09755    1.000
    Si2241   Si       0.34517    0.75047    0.08609    1.000
    Si2242   Si       0.40056    0.72796    0.05010    1.000
    N2243    N        0.39174    0.54970    0.16818    1.000
    Si2244   Si       0.35555    0.56109    0.14712    1.000
    N2245    N        0.34520    0.60057    0.16126    1.000
    Si2246   Si       0.37835    0.75377    0.19242    1.000
    N2247    N        0.35249    0.73309    0.16334    1.000
    Si2248   Si       0.35149    0.63685    0.18403    1.000
    N2249    N        0.37198    0.74697    0.23433    1.000
    N2250    N        0.39353    0.64218    0.19068    1.000
    Si2251   Si       0.36328    0.69629    0.13610    1.000
    Si2252   Si       0.37391    0.59616    0.34988    1.000
    N2253    N        0.36910    0.55181    0.35390    1.000
    Si2254   Si       0.38789    0.60490    0.27962    1.000
    N2255    N        0.35005    0.62514    0.27677    1.000
    Si2256   Si       0.37920    0.71366    0.26222    1.000
    N2257    N        0.34263    0.68480    0.36147    1.000
    N2258    N        0.39902    0.67596    0.25377    1.000
    N2259    N        0.38499    0.61343    0.38575    1.000
    N2260    N        0.36718    0.54029    0.42392    1.000
    N2261    N        0.35882    0.61166    0.45028    1.000
    Si2262   Si       0.39296    0.54224    0.38846    1.000
    Si2263   Si       0.39843    0.61549    0.47039    1.000
    Si2264   Si       0.34174    0.56815    0.44597    1.000
    N2265    N        0.37634    0.67649    0.42137    1.000
    Si2266   Si       0.37964    0.69908    0.38550    1.000
    Si2267   Si       0.37335    0.68529    0.46175    1.000
    Si2268   Si       0.36114    0.63711    0.41271    1.000
    N2269    N        0.37806    0.72773    0.47925    1.000
    N2270    N        0.36322    0.74195    0.38424    1.000
    N2271    N        0.39611    0.65518    0.48747    1.000
    Si2272   Si       0.36079    0.57530    0.51438    1.000
    N2273    N        0.36575    0.54570    0.54494    1.000
    Si2274   Si       0.38293    0.54947    0.58429    1.000
    N2275    N        0.35419    0.55041    0.61692    1.000
    N2276    N        0.39893    0.57964    0.49489    1.000
    N2277    N        0.38752    0.74734    0.55188    1.000
    Si2278   Si       0.36502    0.72224    0.52172    1.000
    N2279    N        0.37415    0.68595    0.54585    1.000
    Si2280   Si       0.36214    0.67515    0.58817    1.000
    N2281    N        0.39161    0.65009    0.60682    1.000
    N2282    N        0.35439    0.71219    0.61000    1.000
    Si2283   Si       0.35966    0.74774    0.58526    1.000
    N2284    N        0.38841    0.59193    0.73655    1.000
    Si2285   Si       0.37333    0.52830    0.65145    1.000
    N2286    N        0.34989    0.59565    0.68070    1.000
    Si2287   Si       0.38946    0.58880    0.69284    1.000
    N2288    N        0.34022    0.52754    0.67736    1.000
    N2289    N        0.35149    0.64776    0.72411    1.000
    Si2290   Si       0.36720    0.75094    0.71631    1.000
    Si2291   Si       0.34200    0.63776    0.68360    1.000
    N2292    N        0.37561    0.73699    0.67399    1.000
    N2293    N        0.37294    0.71387    0.73827    1.000
    N2294    N        0.36267    0.66941    0.66276    1.000
    Si2295   Si       0.34348    0.70965    0.65457    1.000
    Si2296   Si       0.40138    0.65703    0.64837    1.000
    N2297    N        0.37660    0.60150    0.83795    1.000
    Si2298   Si       0.38093    0.55997    0.76542    1.000
    Si2299   Si       0.35961    0.56285    0.82700    1.000
    N2300    N        0.34169    0.56357    0.78631    1.000
    N2301    N        0.37998    0.52084    0.74805    1.000
    Si2302   Si       0.39710    0.63455    0.82017    1.000
    N2303    N        0.37883    0.71460    0.81534    1.000
    N2304    N        0.37777    0.65144    0.78555    1.000
    Si2305   Si       0.35603    0.70993    0.85369    1.000
    Si2306   Si       0.35018    0.68341    0.79877    1.000
    Si2307   Si       0.38856    0.63687    0.74594    1.000
    Si2308   Si       0.40305    0.57154    0.92246    1.000
    Si2309   Si       0.37464    0.52107    0.87613    1.000
    Si2310   Si       0.34941    0.52546    0.94970    1.000
    N2311    N        0.37973    0.51591    0.97781    1.000
    N2312    N        0.36058    0.56476    0.92837    1.000
    Si2313   Si       0.38343    0.62119    0.87720    1.000
    N2314    N        0.34143    0.62227    0.89068    1.000
    N2315    N        0.39958    0.65010    0.97952    1.000
    N2316    N        0.34971    0.69024    0.95598    1.000
    N2317    N        0.37009    0.74939    0.95607    1.000
    N2318    N        0.37071    0.71672    0.89182    1.000
    Si2319   Si       0.35464    0.65162    0.97567    1.000
    Si2320   Si       0.35485    0.72480    0.98896    1.000
    Si2321   Si       0.38218    0.70859    0.93185    1.000
    Si2322   Si       0.37866    0.80025    0.04418    1.000
    N2323    N        0.35957    0.79478    0.00558    1.000
    Si2324   Si       0.35144    0.81771    0.10653    1.000
    N2325    N        0.34621    0.82115    0.06371    1.000
    N2326    N        0.37849    0.76078    0.06194    1.000
    N2327    N        0.39329    0.80844    0.11847    1.000
    N2328    N        0.37382    0.88339    0.04503    1.000
    N2329    N        0.34926    0.86046    0.11785    1.000
    N2330    N        0.39429    0.95299    0.05750    1.000
    Si2331   Si       0.37715    0.97566    0.09204    1.000
    Si2332   Si       0.37361    0.92495    0.02983    1.000
    N2333    N        0.37239    0.79618    0.18488    1.000
    N2334    N        0.39767    0.86123    0.17017    1.000
    N2335    N        0.35907    0.91452    0.16462    1.000
    N2336    N        0.37328    0.88708    0.23071    1.000
    Si2337   Si       0.37834    0.88411    0.13961    1.000
    N2338    N        0.37421    0.98203    0.18444    1.000
    Si2339   Si       0.40148    0.89559    0.19768    1.000
    N2340    N        0.36605    0.78804    0.29302    1.000
    N2341    N        0.37911    0.86798    0.35236    1.000
    Si2342   Si       0.34926    0.77878    0.25354    1.000
    N2343    N        0.40728    0.84566    0.27992    1.000
    Si2344   Si       0.36505    0.94182    0.28439    1.000
    N2345    N        0.37433    0.98441    0.28094    1.000
    Si2346   Si       0.35020    0.89935    0.35460    1.000
    N2347    N        0.34831    0.93003    0.32351    1.000
    N2348    N        0.40231    0.91937    0.28309    1.000
    Si2349   Si       0.38138    0.82216    0.43714    1.000
    Si2350   Si       0.36420    0.78601    0.39156    1.000
    N2351    N        0.36347    0.86118    0.44183    1.000
    Si2352   Si       0.37026    0.76946    0.47026    1.000
    N2353    N        0.39547    0.81686    0.39759    1.000
    Si2354   Si       0.36830    0.87897    0.48201    1.000
    N2355    N        0.39943    0.80199    0.46920    1.000
    N2356    N        0.34781    0.79121    0.43273    1.000
    N2357    N        0.39339    0.95021    0.45069    1.000
    N2358    N        0.34540    0.91405    0.47943    1.000
    Si2359   Si       0.38688    0.00226    0.38191    1.000
    N2360    N        0.35345    0.91176    0.39534    1.000
    Si2361   Si       0.36823    0.94955    0.48715    1.000
    Si2362   Si       0.37413    0.94626    0.41079    1.000
    N2363    N        0.35245    0.98472    0.40524    1.000
    Si2364   Si       0.35817    0.81628    0.52718    1.000
    Si2365   Si       0.38973    0.83737    0.57721    1.000
    N2366    N        0.35139    0.81709    0.56876    1.000
    N2367    N        0.38588    0.87963    0.57231    1.000
    N2368    N        0.37941    0.77315    0.61441    1.000
    N2369    N        0.34506    0.85215    0.50824    1.000
    N2370    N        0.34565    0.78202    0.50382    1.000
    N2371    N        0.40103    0.82151    0.53623    1.000
    Si2372   Si       0.37738    0.89691    0.61300    1.000
    N2373    N        0.38357    0.99494    0.59197    1.000
    N2374    N        0.38545    0.94587    0.52901    1.000
    Si2375   Si       0.35854    0.96969    0.61554    1.000
    N2376    N        0.34985    0.93020    0.60047    1.000
    N2377    N        0.35067    0.86660    0.63078    1.000
    Si2378   Si       0.35175    0.84883    0.67085    1.000
    N2379    N        0.37678    0.85668    0.70740    1.000
    N2380    N        0.37147    0.80978    0.66487    1.000
    Si2381   Si       0.35882    0.77082    0.65214    1.000
    N2382    N        0.39695    0.78430    0.72041    1.000
    N2383    N        0.34044    0.89990    0.74480    1.000
    N2384    N        0.37290    0.96752    0.65536    1.000
    Si2385   Si       0.38079    0.89231    0.73090    1.000
    N2386    N        0.36282    0.97170    0.72669    1.000
    Si2387   Si       0.39875    0.99580    0.72582    1.000
    Si2388   Si       0.34485    0.97360    0.68766    1.000
    N2389    N        0.35803    0.79670    0.83784    1.000
    Si2390   Si       0.38248    0.82314    0.85770    1.000
    Si2391   Si       0.35585    0.80115    0.79419    1.000
    N2392    N        0.35329    0.84584    0.78345    1.000
    N2393    N        0.39035    0.77594    0.78366    1.000
    Si2394   Si       0.38048    0.87340    0.80076    1.000
    N2395    N        0.36567    0.90649    0.82840    1.000
    Si2396   Si       0.39959    0.92969    0.84301    1.000
    Si2397   Si       0.34030    0.82270    0.92032    1.000
    Si2398   Si       0.38683    0.78689    0.97204    1.000
    N2399    N        0.38014    0.81564    0.94150    1.000
    N2400    N        0.36817    0.84620    0.89199    1.000
    N2401    N        0.34709    0.95942    0.94225    1.000
    Si2402   Si       0.37814    0.88919    0.90709    1.000
    N2403    N        0.35052    0.98570    0.88170    1.000
    N2404    N        0.39088    0.92649    0.88582    1.000
    Si2405   Si       0.37480    0.95935    0.90879    1.000
    N2406    N        0.37593    0.90003    0.94927    1.000
    N2407    N        0.42722    0.09100    0.02884    1.000
    Si2408   Si       0.43320    0.09515    0.07212    1.000
    N2409    N        0.42958    0.01795    0.04868    1.000
    N2410    N        0.43033    0.12926    0.09978    1.000
    Si2411   Si       0.45884    0.07775    0.00038    1.000
    N2412    N        0.46283    0.02007    0.11412    1.000
    Si2413   Si       0.41727    0.19261    0.04571    1.000
    N2414    N        0.43337    0.17893    0.00571    1.000
    N2415    N        0.44904    0.19971    0.07225    1.000
    Si2416   Si       0.44312    0.21089    0.11549    1.000
    Si2417   Si       0.45685    0.12057    0.13220    1.000
    Si2418   Si       0.42944    0.04811    0.23844    1.000
    Si2419   Si       0.42141    0.07822    0.17452    1.000
    N2420    N        0.42407    0.08439    0.21787    1.000
    N2421    N        0.45524    0.08106    0.14798    1.000
    Si2422   Si       0.42829    0.01091    0.14027    1.000
    N2423    N        0.39932    0.02300    0.22199    1.000
    N2424    N        0.40090    0.04088    0.15592    1.000
    Si2425   Si       0.43145    0.11669    0.24570    1.000
    N2426    N        0.45180    0.14420    0.17083    1.000
    N2427    N        0.40924    0.18685    0.12993    1.000
    N2428    N        0.41910    0.24805    0.11765    1.000
    Si2429   Si       0.41891    0.17158    0.17161    1.000
    N2430    N        0.42694    0.21080    0.18980    1.000
    N2431    N        0.41910    0.03850    0.28278    1.000
    Si2432   Si       0.42928    0.10844    0.32252    1.000
    N2433    N        0.44893    0.09898    0.28317    1.000
    N2434    N        0.45475    0.09093    0.35302    1.000
    Si2435   Si       0.46055    0.05788    0.28886    1.000
    N2436    N        0.40212    0.14622    0.25521    1.000
    N2437    N        0.42904    0.15059    0.32161    1.000
    N2438    N        0.42416    0.20649    0.29553    1.000
    Si2439   Si       0.41628    0.24979    0.30233    1.000
    Si2440   Si       0.45852    0.18343    0.31409    1.000
    Si2441   Si       0.40413    0.05913    0.42674    1.000
    N2442    N        0.45089    0.07807    0.48777    1.000
    N2443    N        0.41913    0.02210    0.40731    1.000
    N2444    N        0.43454    0.09042    0.42366    1.000
    Si2445   Si       0.43778    0.11334    0.38610    1.000
    Si2446   Si       0.40674    0.08374    0.49238    1.000
    N2447    N        0.40117    0.12758    0.48303    1.000
    Si2448   Si       0.46147    0.00940    0.40413    1.000
    N2449    N        0.40191    0.19348    0.45570    1.000
    Si2450   Si       0.41254    0.21374    0.49142    1.000
    N2451    N        0.44645    0.23960    0.48299    1.000
    N2452    N        0.43201    0.23623    0.40431    1.000
    Si2453   Si       0.42878    0.08772    0.55913    1.000
    N2454    N        0.43499    0.03812    0.61498    1.000
    N2455    N        0.40974    0.09793    0.59887    1.000
    N2456    N        0.44730    0.12406    0.54379    1.000
    Si2457   Si       0.42026    0.13891    0.61065    1.000
    N2458    N        0.42777    0.18571    0.52257    1.000
    Si2459   Si       0.43883    0.19816    0.56138    1.000
    N2460    N        0.41170    0.17264    0.58509    1.000
    Si2461   Si       0.43382    0.14571    0.50728    1.000
    N2462    N        0.45313    0.24201    0.56675    1.000
    Si2463   Si       0.41760    0.07228    0.63456    1.000
    N2464    N        0.41414    0.10328    0.72800    1.000
    Si2465   Si       0.44756    0.09970    0.69992    1.000
    N2466    N        0.44866    0.08557    0.65868    1.000
    N2467    N        0.45643    0.14133    0.69251    1.000
    Si2468   Si       0.42405    0.21494    0.71539    1.000
    Si2469   Si       0.42178    0.16357    0.68231    1.000
    N2470    N        0.43431    0.20537    0.67316    1.000
    N2471    N        0.40024    0.24848    0.72724    1.000
    N2472    N        0.42483    0.10094    0.81047    1.000
    Si2473   Si       0.44352    0.06128    0.81382    1.000
    N2474    N        0.41409    0.03083    0.82447    1.000
    Si2475   Si       0.43733    0.14248    0.81334    1.000
    N2476    N        0.44158    0.15780    0.77246    1.000
    Si2477   Si       0.41517    0.20815    0.84320    1.000
    N2478    N        0.45175    0.21172    0.81768    1.000
    N2479    N        0.42806    0.25538    0.85349    1.000
    N2480    N        0.40408    0.16655    0.83182    1.000
    Si2481   Si       0.40786    0.14379    0.74764    1.000
    N2482    N        0.40782    0.01655    0.97962    1.000
    Si2483   Si       0.41775    0.09040    0.93584    1.000
    N2484    N        0.42606    0.05183    0.91463    1.000
    Si2485   Si       0.40757    0.01905    0.93647    1.000
    N2486    N        0.40698    0.12749    0.91605    1.000
    N2487    N        0.45388    0.09298    0.96131    1.000
    N2488    N        0.40221    0.23940    0.97635    1.000
    N2489    N        0.41793    0.19696    0.88692    1.000
    Si2490   Si       0.44975    0.21643    0.91075    1.000
    Si2491   Si       0.41483    0.19675    0.96995    1.000
    N2492    N        0.45275    0.19678    0.94972    1.000
    N2493    N        0.41473    0.35455    0.10727    1.000
    N2494    N        0.43653    0.35675    0.04321    1.000
    Si2495   Si       0.44945    0.34621    0.08242    1.000
    Si2496   Si       0.42178    0.28958    0.11396    1.000
    N2497    N        0.45624    0.30615    0.09422    1.000
    Si2498   Si       0.41146    0.48812    0.10063    1.000
    Si2499   Si       0.42904    0.44060    0.03627    1.000
    N2500    N        0.42470    0.47021    0.00706    1.000
    N2501    N        0.41004    0.45455    0.07284    1.000
    Si2502   Si       0.46074    0.49332    0.00684    1.000
    Si2503   Si       0.43066    0.29330    0.19534    1.000
    N2504    N        0.42467    0.30739    0.15331    1.000
    Si2505   Si       0.42150    0.35075    0.15075    1.000
    N2506    N        0.42561    0.33114    0.21647    1.000
    Si2507   Si       0.40076    0.46401    0.18070    1.000
    N2508    N        0.41770    0.47798    0.14246    1.000
    N2509    N        0.41497    0.42355    0.18632    1.000
    N2510    N        0.41805    0.49207    0.20698    1.000
    Si2511   Si       0.45917    0.48318    0.15133    1.000
    N2512    N        0.42921    0.28466    0.27946    1.000
    N2513    N        0.43868    0.32844    0.33805    1.000
    Si2514   Si       0.45100    0.31613    0.29873    1.000
    N2515    N        0.45377    0.35503    0.27935    1.000
    N2516    N        0.40147    0.26407    0.34093    1.000
    Si2517   Si       0.43828    0.38731    0.30506    1.000
    N2518    N        0.42292    0.47234    0.31831    1.000
    Si2519   Si       0.43889    0.48571    0.35743    1.000
    N2520    N        0.45097    0.39703    0.34665    1.000
    Si2521   Si       0.45758    0.46250    0.29395    1.000
    N2522    N        0.45650    0.42105    0.28420    1.000
    Si2523   Si       0.42817    0.27007    0.37607    1.000
    Si2524   Si       0.44557    0.28362    0.48892    1.000
    Si2525   Si       0.43256    0.34313    0.37749    1.000
    N2526    N        0.41346    0.30618    0.39533    1.000
    N2527    N        0.41905    0.36393    0.45348    1.000
    N2528    N        0.40359    0.37188    0.38475    1.000
    N2529    N        0.40410    0.29874    0.48589    1.000
    Si2530   Si       0.40064    0.34412    0.48906    1.000
    Si2531   Si       0.45875    0.34387    0.44627    1.000
    Si2532   Si       0.44400    0.40170    0.46075    1.000
    N2533    N        0.40537    0.50128    0.38051    1.000
    N2534    N        0.44589    0.42348    0.42441    1.000
    Si2535   Si       0.43352    0.41626    0.38266    1.000
    N2536    N        0.42472    0.35342    0.52631    1.000
    Si2537   Si       0.43710    0.32368    0.55603    1.000
    N2538    N        0.40874    0.30255    0.58134    1.000
    Si2539   Si       0.42361    0.26248    0.59307    1.000
    N2540    N        0.45418    0.29405    0.52999    1.000
    Si2541   Si       0.45129    0.37855    0.60431    1.000
    Si2542   Si       0.43032    0.39497    0.53689    1.000
    Si2543   Si       0.44133    0.49852    0.52355    1.000
    Si2544   Si       0.41329    0.47768    0.61243    1.000
    N2545    N        0.43948    0.42091    0.50010    1.000
    N2546    N        0.45536    0.46401    0.60981    1.000
    N2547    N        0.45366    0.40701    0.57079    1.000
    Si2548   Si       0.40189    0.44243    0.50671    1.000
    N2549    N        0.40135    0.48157    0.52316    1.000
    N2550    N        0.40975    0.37245    0.62002    1.000
    N2551    N        0.41379    0.32405    0.73418    1.000
    N2552    N        0.43369    0.32362    0.66846    1.000
    Si2553   Si       0.44204    0.34257    0.70603    1.000
    N2554    N        0.44079    0.25919    0.63289    1.000
    Si2555   Si       0.39848    0.34397    0.65178    1.000
    N2556    N        0.44992    0.44465    0.67066    1.000
    Si2557   Si       0.41216    0.46068    0.68563    1.000
    N2558    N        0.43229    0.38380    0.70008    1.000
    N2559    N        0.40925    0.46024    0.73135    1.000
    Si2560   Si       0.41874    0.49983    0.74492    1.000
    Si2561   Si       0.41866    0.33250    0.77832    1.000
    N2562    N        0.42221    0.36897    0.84853    1.000
    N2563    N        0.41035    0.29047    0.78715    1.000
    N2564    N        0.45863    0.34400    0.78277    1.000
    Si2565   Si       0.42293    0.27989    0.74829    1.000
    N2566    N        0.44934    0.42853    0.86595    1.000
    Si2567   Si       0.42378    0.41168    0.83556    1.000
    N2568    N        0.42615    0.42509    0.79274    1.000
    N2569    N        0.43284    0.49347    0.78500    1.000
    Si2570   Si       0.45692    0.45678    0.78558    1.000
    N2571    N        0.44208    0.25853    0.91909    1.000
    Si2572   Si       0.41126    0.35060    0.95808    1.000
    N2573    N        0.40388    0.30554    0.96356    1.000
    Si2574   Si       0.42710    0.26995    0.96201    1.000
    Si2575   Si       0.44114    0.35831    0.88700    1.000
    N2576    N        0.44328    0.31573    0.88065    1.000
    N2577    N        0.45166    0.36685    0.97386    1.000
    N2578    N        0.41362    0.36410    0.91846    1.000
    Si2579   Si       0.41803    0.28165    0.88921    1.000
    N2580    N        0.41392    0.57319    0.08048    1.000
    N2581    N        0.44108    0.53342    0.01247    1.000
    Si2582   Si       0.41245    0.61552    0.08278    1.000
    N2583    N        0.44659    0.60194    0.01214    1.000
    N2584    N        0.44657    0.51552    0.09220    1.000
    Si2585   Si       0.40645    0.61815    0.00978    1.000
    Si2586   Si       0.45458    0.55900    0.08964    1.000
    N2587    N        0.44737    0.64027    0.08664    1.000
    N2588    N        0.43407    0.71285    0.07168    1.000
    N2589    N        0.44670    0.66882    0.02198    1.000
    Si2590   Si       0.45642    0.67624    0.06260    1.000
    Si2591   Si       0.45733    0.74198    0.09620    1.000
    Si2592   Si       0.42358    0.53193    0.18953    1.000
    N2593    N        0.43104    0.54711    0.22929    1.000
    Si2594   Si       0.45020    0.58519    0.23635    1.000
    N2595    N        0.45958    0.52624    0.16399    1.000
    Si2596   Si       0.42472    0.50733    0.24737    1.000
    N2597    N        0.45454    0.64494    0.15502    1.000
    N2598    N        0.42133    0.74807    0.18793    1.000
    Si2599   Si       0.43764    0.71616    0.16390    1.000
    N2600    N        0.40711    0.69183    0.14566    1.000
    N2601    N        0.45679    0.65139    0.22919    1.000
    Si2602   Si       0.41311    0.65009    0.15128    1.000
    N2603    N        0.45879    0.74544    0.13921    1.000
    Si2604   Si       0.41379    0.64439    0.22889    1.000
    Si2605   Si       0.44263    0.61437    0.32762    1.000
    N2606    N        0.41749    0.60740    0.25057    1.000
    N2607    N        0.40406    0.59792    0.31883    1.000
    Si2608   Si       0.43923    0.74388    0.29723    1.000
    Si2609   Si       0.42815    0.68484    0.28711    1.000
    N2610    N        0.44806    0.64769    0.30044    1.000
    N2611    N        0.45848    0.74879    0.33578    1.000
    N2612    N        0.40357    0.72144    0.29491    1.000
    N2613    N        0.44820    0.63047    0.36867    1.000
    N2614    N        0.44855    0.51978    0.48434    1.000
    Si2615   Si       0.42760    0.60684    0.39858    1.000
    N2616    N        0.42880    0.56370    0.39806    1.000
    N2617    N        0.42852    0.62175    0.43982    1.000
    Si2618   Si       0.46185    0.53700    0.39519    1.000
    N2619    N        0.41962    0.70387    0.37093    1.000
    Si2620   Si       0.45973    0.72132    0.37017    1.000
    N2621    N        0.44169    0.53724    0.54376    1.000
    Si2622   Si       0.44370    0.54747    0.58425    1.000
    N2623    N        0.41385    0.58105    0.58690    1.000
    Si2624   Si       0.42051    0.62418    0.58680    1.000
    N2625    N        0.41233    0.51941    0.59978    1.000
    Si2626   Si       0.43551    0.55731    0.50367    1.000
    N2627    N        0.42525    0.63531    0.54565    1.000
    N2628    N        0.43823    0.70202    0.52650    1.000
    Si2629   Si       0.43010    0.74246    0.54046    1.000
    Si2630   Si       0.40917    0.66968    0.52680    1.000
    N2631    N        0.45609    0.63670    0.61179    1.000
    N2632    N        0.40367    0.55333    0.67406    1.000
    Si2633   Si       0.44096    0.53440    0.67760    1.000
    N2634    N        0.41172    0.62378    0.67592    1.000
    N2635    N        0.44662    0.51776    0.71692    1.000
    N2636    N        0.42966    0.69054    0.65252    1.000
    N2637    N        0.42084    0.66175    0.72870    1.000
    N2638    N        0.43445    0.72729    0.71344    1.000
    Si2639   Si       0.42146    0.72814    0.67222    1.000
    Si2640   Si       0.44463    0.63874    0.70145    1.000
    Si2641   Si       0.41395    0.70156    0.74205    1.000
    N2642    N        0.42992    0.61561    0.79650    1.000
    Si2643   Si       0.43818    0.57676    0.81367    1.000
    Si2644   Si       0.41441    0.51220    0.82004    1.000
    N2645    N        0.40121    0.55223    0.80744    1.000
    N2646    N        0.44510    0.51037    0.85161    1.000
    N2647    N        0.43474    0.70812    0.77996    1.000
    Si2648   Si       0.41070    0.74026    0.80105    1.000
    N2649    N        0.40908    0.65192    0.85806    1.000
    N2650    N        0.44367    0.75557    0.82891    1.000
    N2651    N        0.40626    0.61449    0.91418    1.000
    Si2652   Si       0.44958    0.54418    0.87828    1.000
    Si2653   Si       0.40906    0.54814    0.98670    1.000
    N2654    N        0.42928    0.55338    0.94912    1.000
    N2655    N        0.40698    0.54916    0.88435    1.000
    Si2656   Si       0.42118    0.64493    0.94011    1.000
    Si2657   Si       0.43933    0.66881    0.88100    1.000
    N2658    N        0.45678    0.75114    0.90240    1.000
    N2659    N        0.44285    0.71947    0.97351    1.000
    N2660    N        0.42208    0.68510    0.92060    1.000
    Si2661   Si       0.45303    0.71658    0.93003    1.000
    Si2662   Si       0.41894    0.68753    0.99595    1.000
    N2663    N        0.44742    0.78283    0.07738    1.000
    Si2664   Si       0.42739    0.81739    0.09111    1.000
    Si2665   Si       0.41435    0.87022    0.03215    1.000
    N2666    N        0.41126    0.82885    0.05244    1.000
    N2667    N        0.45179    0.84564    0.11309    1.000
    Si2668   Si       0.44646    0.88599    0.09860    1.000
    N2669    N        0.44007    0.89581    0.05644    1.000
    Si2670   Si       0.43648    0.93822    0.03946    1.000
    N2671    N        0.45260    0.96495    0.00678    1.000
    N2672    N        0.40832    0.91877    0.00606    1.000
    Si2673   Si       0.43875    0.00651    0.00653    1.000
    N2674    N        0.44375    0.81208    0.16859    1.000
    Si2675   Si       0.45695    0.77164    0.17476    1.000
    N2676    N        0.43313    0.88113    0.22523    1.000
    Si2677   Si       0.40163    0.81968    0.16149    1.000
    N2678    N        0.41479    0.90581    0.12254    1.000
    N2679    N        0.40729    0.97792    0.12365    1.000
    N2680    N        0.43544    0.97660    0.24389    1.000
    Si2681   Si       0.41345    0.98074    0.20555    1.000
    Si2682   Si       0.42398    0.94275    0.14351    1.000
    N2683    N        0.44489    0.99464    0.17872    1.000
    N2684    N        0.41705    0.93445    0.18713    1.000
    N2685    N        0.43855    0.78300    0.27996    1.000
    N2686    N        0.41904    0.80788    0.33916    1.000
    Si2687   Si       0.40984    0.84180    0.36414    1.000
    Si2688   Si       0.40389    0.80730    0.29697    1.000
    Si2689   Si       0.45908    0.79199    0.34352    1.000
    Si2690   Si       0.40579    0.88243    0.25924    1.000
    N2691    N        0.44785    0.86040    0.36543    1.000
    Si2692   Si       0.41624    0.99566    0.27684    1.000
    N2693    N        0.43984    0.97889    0.30917    1.000
    N2694    N        0.44254    0.92252    0.34320    1.000
    Si2695   Si       0.43566    0.93623    0.30471    1.000
    N2696    N        0.45585    0.84218    0.49911    1.000
    Si2697   Si       0.43851    0.95532    0.45511    1.000
    Si2698   Si       0.44413    0.94331    0.38190    1.000
    N2699    N        0.40471    0.96072    0.38121    1.000
    N2700    N        0.45124    0.92790    0.42322    1.000
    N2701    N        0.42093    0.82320    0.60431    1.000
    N2702    N        0.44217    0.77122    0.50978    1.000
    Si2703   Si       0.42443    0.81128    0.50311    1.000
    Si2704   Si       0.45003    0.88453    0.50678    1.000
    N2705    N        0.44827    0.90658    0.54564    1.000
    N2706    N        0.44318    0.98433    0.56184    1.000
    Si2707   Si       0.42558    0.99857    0.60024    1.000
    Si2708   Si       0.41182    0.97976    0.53090    1.000
    N2709    N        0.40703    0.88682    0.49965    1.000
    Si2710   Si       0.40143    0.90723    0.53988    1.000
    N2711    N        0.44008    0.96767    0.49913    1.000
    N2712    N        0.43189    0.82388    0.67086    1.000
    Si2713   Si       0.40752    0.80202    0.63959    1.000
    N2714    N        0.43363    0.83006    0.74230    1.000
    Si2715   Si       0.40727    0.82578    0.70768    1.000
    N2716    N        0.43259    0.76452    0.65083    1.000
    N2717    N        0.40130    0.91845    0.70329    1.000
    N2718    N        0.42773    0.97468    0.69991    1.000
    Si2719   Si       0.43873    0.93595    0.71243    1.000
    Si2720   Si       0.45534    0.90847    0.63382    1.000
    Si2721   Si       0.41489    0.95208    0.65980    1.000
    N2722    N        0.44391    0.97269    0.63288    1.000
    N2723    N        0.41028    0.91277    0.63419    1.000
    Si2724   Si       0.43953    0.83988    0.84690    1.000
    Si2725   Si       0.41865    0.79259    0.75733    1.000
    N2726    N        0.40217    0.85023    0.82876    1.000
    N2727    N        0.45477    0.77090    0.76372    1.000
    Si2728   Si       0.44210    0.90738    0.77949    1.000
    N2729    N        0.43676    0.91584    0.82251    1.000
    N2730    N        0.44841    0.94101    0.75454    1.000
    Si2731   Si       0.43799    0.99538    0.83958    1.000
    Si2732   Si       0.45562    0.98214    0.76822    1.000
    N2733    N        0.40501    0.88966    0.76706    1.000
    N2734    N        0.41578    0.00011    0.76504    1.000
    N2735    N        0.39971    0.97330    0.83969    1.000
    N2736    N        0.42049    0.81312    0.87612    1.000
    N2737    N        0.44715    0.81956    0.93620    1.000
    Si2738   Si       0.41058    0.83193    0.91539    1.000
    Si2739   Si       0.44555    0.82414    0.98124    1.000
    N2740    N        0.42346    0.87447    0.91652    1.000
    N2741    N        0.42599    0.78610    0.98794    1.000
    N2742    N        0.42405    0.85912    0.99180    1.000
    Si2743   Si       0.45936    0.89851    0.91629    1.000
    Si2744   Si       0.45159    0.97291    0.90729    1.000
    N2745    N        0.45783    0.00480    0.87724    1.000
    Si2746   Si       0.41440    0.89434    0.96917    1.000
    N2747    N        0.44960    0.91710    0.95311    1.000
    N2748    N        0.41115    0.98082    0.91931    1.000
    Si2749   Si       0.50333    0.11205    0.07952    1.000
    N2750    N        0.49791    0.08539    0.01643    1.000
    N2751    N        0.47280    0.08237    0.08410    1.000
    Si2752   Si       0.51205    0.04268    0.01630    1.000
    N2753    N        0.50224    0.01584    0.05021    1.000
    Si2754   Si       0.48005    0.05827    0.11874    1.000
    N2755    N        0.49804    0.12825    0.11917    1.000
    Si2756   Si       0.48174    0.21865    0.05344    1.000
    N2757    N        0.49034    0.21466    0.00872    1.000
    N2758    N        0.50764    0.14457    0.05308    1.000
    Si2759   Si       0.51379    0.23243    0.12017    1.000
    N2760    N        0.51410    0.21270    0.08138    1.000
    Si2761   Si       0.49097    0.25879    0.00749    1.000
    N2762    N        0.51401    0.10008    0.20592    1.000
    Si2763   Si       0.50902    0.06841    0.23589    1.000
    Si2764   Si       0.48602    0.13578    0.19563    1.000
    N2765    N        0.52113    0.05770    0.13168    1.000
    Si2766   Si       0.46495    0.22878    0.18191    1.000
    N2767    N        0.47699    0.21956    0.13944    1.000
    N2768    N        0.46879    0.13898    0.23623    1.000
    N2769    N        0.49491    0.20744    0.20487    1.000
    Si2770   Si       0.51977    0.22255    0.23976    1.000
    Si2771   Si       0.48753    0.06421    0.35484    1.000
    Si2772   Si       0.48511    0.12435    0.27381    1.000
    N2773    N        0.47765    0.03694    0.32059    1.000
    N2774    N        0.51302    0.09284    0.27346    1.000
    N2775    N        0.47338    0.04668    0.24904    1.000
    N2776    N        0.49212    0.15627    0.30181    1.000
    N2777    N        0.48196    0.21997    0.32065    1.000
    Si2778   Si       0.51407    0.22037    0.34836    1.000
    N2779    N        0.48964    0.04265    0.39163    1.000
    N2780    N        0.50540    0.09476    0.44257    1.000
    Si2781   Si       0.51426    0.05811    0.42267    1.000
    Si2782   Si       0.46411    0.10531    0.45473    1.000
    Si2783   Si       0.47614    0.23931    0.40539    1.000
    N2784    N        0.49787    0.20703    0.38477    1.000
    N2785    N        0.46570    0.14359    0.47643    1.000
    Si2786   Si       0.50627    0.16392    0.47505    1.000
    Si2787   Si       0.48900    0.23200    0.48068    1.000
    Si2788   Si       0.50356    0.16541    0.39489    1.000
    N2789    N        0.46741    0.14354    0.39354    1.000
    N2790    N        0.49937    0.24441    0.44168    1.000
    Si2791   Si       0.47588    0.04191    0.59674    1.000
    Si2792   Si       0.47519    0.05546    0.51694    1.000
    N2793    N        0.49661    0.07470    0.61171    1.000
    N2794    N        0.48729    0.01506    0.50702    1.000
    N2795    N        0.51605    0.07146    0.51816    1.000
    N2796    N        0.45941    0.05818    0.55723    1.000
    N2797    N        0.46237    0.13639    0.61135    1.000
    N2798    N        0.50742    0.19676    0.50101    1.000
    Si2799   Si       0.47809    0.14063    0.57055    1.000
    Si2800   Si       0.50289    0.21007    0.59165    1.000
    N2801    N        0.47860    0.18323    0.56856    1.000
    Si2802   Si       0.47995    0.10635    0.63696    1.000
    N2803    N        0.47895    0.07462    0.71753    1.000
    N2804    N        0.51156    0.12571    0.65940    1.000
    N2805    N        0.51710    0.13458    0.72432    1.000
    N2806    N        0.50020    0.19341    0.67983    1.000
    Si2807   Si       0.47100    0.22588    0.65887    1.000
    Si2808   Si       0.48303    0.24907    0.72773    1.000
    Si2809   Si       0.49812    0.15182    0.68948    1.000
    N2810    N        0.50540    0.23634    0.63167    1.000
    N2811    N        0.45781    0.21677    0.74149    1.000
    Si2812   Si       0.50333    0.04047    0.82093    1.000
    N2813    N        0.47620    0.04861    0.78649    1.000
    Si2814   Si       0.48093    0.10413    0.85700    1.000
    N2815    N        0.47354    0.06338    0.84741    1.000
    Si2816   Si       0.49147    0.04287    0.74564    1.000
    N2817    N        0.47589    0.13678    0.83051    1.000
    Si2818   Si       0.46756    0.23895    0.84760    1.000
    N2819    N        0.50597    0.18019    0.78365    1.000
    Si2820   Si       0.46549    0.19398    0.77859    1.000
    Si2821   Si       0.51640    0.15164    0.82004    1.000
    Si2822   Si       0.49089    0.02001    0.95828    1.000
    N2823    N        0.46932    0.10020    0.89767    1.000
    Si2824   Si       0.48647    0.09178    0.93356    1.000
    N2825    N        0.49212    0.04642    0.92483    1.000
    N2826    N        0.46869    0.03578    0.99307    1.000
    Si2827   Si       0.46333    0.04773    0.89081    1.000
    Si2828   Si       0.47310    0.18294    0.98718    1.000
    N2829    N        0.50268    0.15027    0.98380    1.000
    N2830    N        0.48029    0.21747    0.88232    1.000
    N2831    N        0.51483    0.24203    0.93403    1.000
    Si2832   Si       0.51865    0.21255    0.90200    1.000
    Si2833   Si       0.49362    0.29000    0.07997    1.000
    N2834    N        0.48701    0.36763    0.09027    1.000
    N2835    N        0.50845    0.36940    0.01991    1.000
    Si2836   Si       0.46488    0.37489    0.01569    1.000
    N2837    N        0.47837    0.26118    0.05029    1.000
    N2838    N        0.51488    0.27476    0.11397    1.000
    N2839    N        0.47981    0.47610    0.04331    1.000
    Si2840   Si       0.48151    0.49187    0.08373    1.000
    Si2841   Si       0.49951    0.43922    0.03320    1.000
    N2842    N        0.46372    0.41579    0.03039    1.000
    N2843    N        0.48748    0.46797    0.11962    1.000
    N2844    N        0.46583    0.27069    0.19215    1.000
    Si2845   Si       0.49508    0.36846    0.13339    1.000
    N2846    N        0.49533    0.32382    0.23181    1.000
    Si2847   Si       0.50102    0.28653    0.20763    1.000
    N2848    N        0.51055    0.26317    0.24400    1.000
    Si2849   Si       0.46024    0.35192    0.23667    1.000
    N2850    N        0.45879    0.37405    0.15632    1.000
    N2851    N        0.51002    0.45179    0.24214    1.000
    N2852    N        0.46789    0.39197    0.22098    1.000
    Si2853   Si       0.45532    0.40977    0.18278    1.000
    Si2854   Si       0.51019    0.46897    0.20149    1.000
    N2855    N        0.47496    0.45270    0.18075    1.000
    N2856    N        0.51895    0.40477    0.14783    1.000
    N2857    N        0.49145    0.30047    0.30549    1.000
    Si2858   Si       0.50429    0.29119    0.34693    1.000
    Si2859   Si       0.51142    0.29962    0.26742    1.000
    N2860    N        0.47152    0.27272    0.37208    1.000
    Si2861   Si       0.48255    0.42914    0.34293    1.000
    N2862    N        0.49444    0.46126    0.31814    1.000
    Si2863   Si       0.50385    0.49329    0.25647    1.000
    Si2864   Si       0.48743    0.41513    0.25168    1.000
    N2865    N        0.46240    0.49473    0.26581    1.000
    Si2866   Si       0.51146    0.37889    0.49573    1.000
    Si2867   Si       0.51269    0.34039    0.39404    1.000
    N2868    N        0.46873    0.34397    0.40174    1.000
    Si2869   Si       0.51100    0.28797    0.45299    1.000
    N2870    N        0.48095    0.37574    0.46515    1.000
    N2871    N        0.46993    0.30398    0.46089    1.000
    N2872    N        0.46937    0.50172    0.41488    1.000
    Si2873   Si       0.47453    0.45695    0.41691    1.000
    N2874    N        0.48583    0.46452    0.46412    1.000
    N2875    N        0.46036    0.45234    0.37393    1.000
    Si2876   Si       0.48163    0.50752    0.45894    1.000
    Si2877   Si       0.50381    0.33781    0.56850    1.000
    N2878    N        0.50784    0.29422    0.56976    1.000
    Si2879   Si       0.48246    0.26725    0.54522    1.000
    N2880    N        0.50756    0.35261    0.52891    1.000
    N2881    N        0.50380    0.26309    0.50610    1.000
    N2882    N        0.46406    0.34330    0.58262    1.000
    Si2883   Si       0.47564    0.44545    0.57681    1.000
    N2884    N        0.46724    0.46755    0.53803    1.000
    N2885    N        0.51432    0.41945    0.51212    1.000
    Si2886   Si       0.48024    0.44538    0.50318    1.000
    N2887    N        0.51914    0.43936    0.58003    1.000
    N2888    N        0.47232    0.25933    0.68744    1.000
    N2889    N        0.49902    0.30701    0.64477    1.000
    N2890    N        0.48469    0.34172    0.71413    1.000
    Si2891   Si       0.50585    0.35051    0.63959    1.000
    Si2892   Si       0.51551    0.37145    0.70942    1.000
    N2893    N        0.47388    0.38109    0.64171    1.000
    Si2894   Si       0.46121    0.29016    0.65673    1.000
    Si2895   Si       0.47722    0.46978    0.64784    1.000
    Si2896   Si       0.48635    0.50547    0.73253    1.000
    N2897    N        0.51029    0.48399    0.70139    1.000
    Si2898   Si       0.46464    0.40435    0.67770    1.000
    N2899    N        0.49520    0.41088    0.70749    1.000
    Si2900   Si       0.50918    0.44738    0.72430    1.000
    N2901    N        0.50066    0.34336    0.84646    1.000
    N2902    N        0.49539    0.27359    0.84358    1.000
    Si2903   Si       0.48505    0.32167    0.75497    1.000
    Si2904   Si       0.49516    0.35423    0.80452    1.000
    Si2905   Si       0.48479    0.30770    0.86869    1.000
    N2906    N        0.46667    0.28342    0.74866    1.000
    Si2907   Si       0.46281    0.47004    0.85764    1.000
    N2908    N        0.48187    0.45849    0.82050    1.000
    N2909    N        0.48439    0.46812    0.75465    1.000
    N2910    N        0.50919    0.39606    0.80343    1.000
    Si2911   Si       0.51545    0.43315    0.82589    1.000
    N2912    N        0.51758    0.41491    0.86614    1.000
    Si2913   Si       0.51588    0.37271    0.87302    1.000
    N2914    N        0.46912    0.27510    0.97367    1.000
    Si2915   Si       0.48362    0.27183    0.93241    1.000
    N2916    N        0.50066    0.30278    0.90851    1.000
    N2917    N        0.47980    0.37478    0.89940    1.000
    Si2918   Si       0.48197    0.37783    0.94561    1.000
    N2919    N        0.51670    0.35479    0.95432    1.000
    Si2920   Si       0.48152    0.41991    0.89431    1.000
    N2921    N        0.47570    0.49674    0.96558    1.000
    Si2922   Si       0.49979    0.46064    0.95487    1.000
    N2923    N        0.48997    0.46477    0.89335    1.000
    N2924    N        0.48506    0.42191    0.93883    1.000
    N2925    N        0.51483    0.44774    0.99463    1.000
    N2926    N        0.48368    0.56473    0.05573    1.000
    Si2927   Si       0.46907    0.56542    0.01580    1.000
    Si2928   Si       0.47325    0.62843    0.12032    1.000
    N2929    N        0.46842    0.58610    0.12181    1.000
    N2930    N        0.49898    0.68192    0.06323    1.000
    N2931    N        0.49867    0.74691    0.08367    1.000
    N2932    N        0.51046    0.64148    0.99908    1.000
    Si2933   Si       0.46767    0.63685    0.99895    1.000
    N2934    N        0.47282    0.58755    0.19648    1.000
    Si2935   Si       0.50910    0.60535    0.21451    1.000
    Si2936   Si       0.47880    0.56454    0.15740    1.000
    N2937    N        0.50938    0.51161    0.21615    1.000
    N2938    N        0.51553    0.64093    0.19225    1.000
    N2939    N        0.51494    0.64437    0.12479    1.000
    N2940    N        0.47143    0.69972    0.18412    1.000
    Si2941   Si       0.50722    0.72281    0.18995    1.000
    Si2942   Si       0.47583    0.65813    0.19065    1.000
    Si2943   Si       0.49200    0.55381    0.34480    1.000
    N2944    N        0.47660    0.58832    0.32072    1.000
    N2945    N        0.49118    0.60120    0.25417    1.000
    Si2946   Si       0.51437    0.58921    0.29276    1.000
    N2947    N        0.46339    0.52175    0.35149    1.000
    Si2948   Si       0.47477    0.64021    0.26627    1.000
    Si2949   Si       0.50303    0.70405    0.27025    1.000
    N2950    N        0.48993    0.69265    0.35906    1.000
    N2951    N        0.51067    0.66280    0.27488    1.000
    N2952    N        0.46156    0.71025    0.27835    1.000
    Si2953   Si       0.49920    0.58169    0.47418    1.000
    N2954    N        0.49494    0.56531    0.38555    1.000
    N2955    N        0.49044    0.60921    0.44231    1.000
    N2956    N        0.50351    0.54471    0.45550    1.000
    Si2957   Si       0.51267    0.59828    0.40676    1.000
    N2958    N        0.48128    0.72198    0.47544    1.000
    N2959    N        0.47116    0.65261    0.49445    1.000
    Si2960   Si       0.47933    0.65765    0.38280    1.000
    Si2961   Si       0.49182    0.70979    0.43565    1.000
    N2962    N        0.47449    0.73818    0.40708    1.000
    Si2963   Si       0.46281    0.64110    0.45250    1.000
    N2964    N        0.47389    0.67079    0.42356    1.000
    N2965    N        0.48655    0.61066    0.55674    1.000
    Si2966   Si       0.48693    0.60626    0.60206    1.000
    N2967    N        0.47639    0.56442    0.60678    1.000
    Si2968   Si       0.46178    0.62130    0.52411    1.000
    N2969    N        0.46561    0.58590    0.49857    1.000
    Si2970   Si       0.49736    0.71844    0.57692    1.000
    Si2971   Si       0.47668    0.69274    0.50931    1.000
    N2972    N        0.50658    0.69717    0.53898    1.000
    N2973    N        0.46447    0.74757    0.56832    1.000
    N2974    N        0.49548    0.69665    0.61611    1.000
    Si2975   Si       0.49099    0.57912    0.71161    1.000
    N2976    N        0.50531    0.54360    0.73788    1.000
    N2977    N        0.47244    0.56518    0.67451    1.000
    Si2978   Si       0.49179    0.54517    0.64260    1.000
    N2979    N        0.46354    0.60699    0.72787    1.000
    N2980    N        0.46431    0.51151    0.65097    1.000
    Si2981   Si       0.46648    0.66934    0.63632    1.000
    Si2982   Si       0.46868    0.74794    0.72848    1.000
    N2983    N        0.49020    0.71405    0.74336    1.000
    N2984    N        0.47949    0.65062    0.67548    1.000
    N2985    N        0.47320    0.57396    0.78800    1.000
    Si2986   Si       0.46837    0.61484    0.77279    1.000
    Si2987   Si       0.51469    0.56095    0.77769    1.000
    Si2988   Si       0.49121    0.60825    0.86721    1.000
    N2989    N        0.45752    0.58159    0.85282    1.000
    N2990    N        0.50964    0.63628    0.83799    1.000
    N2991    N        0.48264    0.65475    0.77412    1.000
    Si2992   Si       0.47711    0.69625    0.78022    1.000
    Si2993   Si       0.50459    0.67969    0.84669    1.000
    N2994    N        0.50541    0.70748    0.81172    1.000
    Si2995   Si       0.46717    0.74031    0.86140    1.000
    N2996    N        0.46675    0.69564    0.86052    1.000
    N2997    N        0.51069    0.75048    0.86456    1.000
    Si2998   Si       0.46865    0.53757    0.95261    1.000
    N2999    N        0.49391    0.56126    0.97712    1.000
    N3000    N        0.47969    0.53923    0.90840    1.000
    N3001    N        0.46061    0.64585    0.95682    1.000
    N3002    N        0.49380    0.69978    0.92510    1.000
    N3003    N        0.47206    0.64062    0.89004    1.000
    Si3004   Si       0.49152    0.65562    0.92596    1.000
    Si3005   Si       0.45569    0.75562    0.98879    1.000
    Si3006   Si       0.48757    0.78355    0.05962    1.000
    N3007    N        0.50467    0.82135    0.06825    1.000
    Si3008   Si       0.50659    0.84428    0.03144    1.000
    N3009    N        0.48549    0.76737    0.01977    1.000
    N3010    N        0.48579    0.82954    0.99785    1.000
    N3011    N        0.50778    0.88830    0.03642    1.000
    Si3012   Si       0.48978    0.94167    0.10141    1.000
    N3013    N        0.48949    0.89896    0.09944    1.000
    Si3014   Si       0.46347    0.00384    0.07139    1.000
    N3015    N        0.46217    0.96128    0.07317    1.000
    N3016    N        0.51160    0.82522    0.13923    1.000
    Si3017   Si       0.51035    0.79389    0.22130    1.000
    N3018    N        0.49977    0.76724    0.18757    1.000
    N3019    N        0.47854    0.81982    0.23529    1.000
    N3020    N        0.48359    0.86998    0.18292    1.000
    Si3021   Si       0.47266    0.84086    0.15181    1.000
    Si3022   Si       0.46889    0.85929    0.22285    1.000
    N3023    N        0.50116    0.88353    0.24146    1.000
    N3024    N        0.48320    0.94083    0.20858    1.000
    N3025    N        0.46749    0.94808    0.13879    1.000
    Si3026   Si       0.50574    0.90303    0.20275    1.000
    Si3027   Si       0.47891    0.96797    0.17495    1.000
    Si3028   Si       0.47430    0.95853    0.24841    1.000
    N3029    N        0.48816    0.81033    0.31614    1.000
    Si3030   Si       0.47687    0.80244    0.27440    1.000
    N3031    N        0.49355    0.87449    0.31614    1.000
    Si3032   Si       0.51546    0.84015    0.33101    1.000
    N3033    N        0.51095    0.77585    0.26055    1.000
    N3034    N        0.46999    0.92713    0.27921    1.000
    Si3035   Si       0.50166    0.89893    0.28195    1.000
    Si3036   Si       0.47245    0.99503    0.33265    1.000
    N3037    N        0.51224    0.97585    0.25788    1.000
    N3038    N        0.51239    0.97511    0.32887    1.000
    Si3039   Si       0.47148    0.89202    0.34672    1.000
    Si3040   Si       0.50639    0.95711    0.36821    1.000
    Si3041   Si       0.48275    0.83365    0.46621    1.000
    Si3042   Si       0.48599    0.77853    0.41576    1.000
    N3043    N        0.47449    0.79230    0.45446    1.000
    Si3044   Si       0.47430    0.84267    0.39333    1.000
    N3045    N        0.47215    0.85866    0.43279    1.000
    N3046    N        0.47044    0.80092    0.38337    1.000
    Si3047   Si       0.47755    0.76355    0.48758    1.000
    N3048    N        0.51611    0.84786    0.37662    1.000
    N3049    N        0.46963    0.97763    0.37455    1.000
    N3050    N        0.49906    0.91419    0.37284    1.000
    Si3051   Si       0.48003    0.90031    0.44031    1.000
    N3052    N        0.46461    0.99220    0.44246    1.000
    N3053    N        0.47718    0.90733    0.48329    1.000
    Si3054   Si       0.50062    0.99812    0.46809    1.000
    N3055    N        0.52478    0.96300    0.46982    1.000
    N3056    N        0.48666    0.82133    0.56953    1.000
    Si3057   Si       0.49276    0.77875    0.55603    1.000
    N3058    N        0.50623    0.78127    0.51610    1.000
    Si3059   Si       0.46281    0.82957    0.60457    1.000
    N3060    N        0.51478    0.88802    0.56814    1.000
    Si3061   Si       0.51079    0.88776    0.61299    1.000
    Si3062   Si       0.48768    0.92040    0.56302    1.000
    N3063    N        0.48474    0.92874    0.60667    1.000
    N3064    N        0.50130    0.94937    0.53274    1.000
    Si3065   Si       0.47205    0.98100    0.52852    1.000
    N3066    N        0.50199    0.00537    0.60336    1.000
    Si3067   Si       0.51401    0.93047    0.49594    1.000
    N3068    N        0.46871    0.87099    0.61814    1.000
    N3069    N        0.48465    0.77816    0.70103    1.000
    N3070    N        0.48597    0.80552    0.63609    1.000
    Si3071   Si       0.51357    0.80793    0.71239    1.000
    Si3072   Si       0.46134    0.79072    0.66806    1.000
    N3073    N        0.50633    0.96787    0.66389    1.000
    Si3074   Si       0.50278    0.92587    0.68143    1.000
    N3075    N        0.46059    0.92057    0.67716    1.000
    N3076    N        0.48928    0.99770    0.74356    1.000
    Si3077   Si       0.48807    0.97032    0.62366    1.000
    N3078    N        0.51361    0.92791    0.72551    1.000
    Si3079   Si       0.46886    0.78171    0.80343    1.000
    N3080    N        0.46827    0.87039    0.86192    1.000
    N3081    N        0.50165    0.82481    0.75130    1.000
    N3082    N        0.51314    0.77654    0.80106    1.000
    Si3083   Si       0.46568    0.84156    0.76838    1.000
    N3084    N        0.45895    0.82499    0.80875    1.000
    N3085    N        0.47588    0.88364    0.76676    1.000
    Si3086   Si       0.50717    0.96915    0.82245    1.000
    N3087    N        0.50759    0.92969    0.83675    1.000
    Si3088   Si       0.46920    0.91481    0.85137    1.000
    N3089    N        0.46667    0.98062    0.81120    1.000
    N3090    N        0.51809    0.00675    0.84162    1.000
    Si3091   Si       0.50748    0.79180    0.98997    1.000
    Si3092   Si       0.50361    0.85634    0.88571    1.000
    N3093    N        0.50362    0.81346    0.89410    1.000
    N3094    N        0.48516    0.77111    0.95808    1.000
    Si3095   Si       0.47365    0.78891    0.91992    1.000
    N3096    N        0.49929    0.88116    0.92207    1.000
    N3097    N        0.51271    0.92954    0.97840    1.000
    N3098    N        0.45873    0.93298    0.88869    1.000
    N3099    N        0.47494    0.98142    0.94342    1.000
    Si3100   Si       0.47359    0.94828    0.97190    1.000
    N3101    N        0.54283    0.09446    0.07805    1.000
    N3102    N        0.55485    0.04375    0.03031    1.000
    N3103    N        0.55976    0.11782    0.01706    1.000
    Si3104   Si       0.56704    0.08340    0.04164    1.000
    Si3105   Si       0.57177    0.01196    0.00304    1.000
    Si3106   Si       0.55440    0.08120    0.11814    1.000
    Si3107   Si       0.51674    0.12310    0.01440    1.000
    Si3108   Si       0.54251    0.00899    0.06024    1.000
    Si3109   Si       0.53488    0.17744    0.06752    1.000
    N3110    N        0.55342    0.16607    0.10442    1.000
    N3111    N        0.56887    0.18370    0.04025    1.000
    N3112    N        0.54084    0.03982    0.23198    1.000
    Si3113   Si       0.55171    0.11890    0.19037    1.000
    N3114    N        0.56513    0.11398    0.14671    1.000
    Si3115   Si       0.53777    0.01758    0.14352    1.000
    N3116    N        0.57081    0.02987    0.16951    1.000
    Si3117   Si       0.57623    0.04743    0.20874    1.000
    Si3118   Si       0.57389    0.18408    0.23843    1.000
    Si3119   Si       0.53460    0.14378    0.13496    1.000
    N3120    N        0.54607    0.21973    0.14722    1.000
    Si3121   Si       0.56491    0.24587    0.17985    1.000
    N3122    N        0.52241    0.15284    0.17578    1.000
    N3123    N        0.55697    0.21574    0.21089    1.000
    Si3124   Si       0.53150    0.19381    0.18332    1.000
    Si3125   Si       0.54370    0.09282    0.30269    1.000
    N3126    N        0.56620    0.02437    0.35904    1.000
    N3127    N        0.52653    0.08212    0.34228    1.000
    Si3128   Si       0.56119    0.06737    0.36617    1.000
    N3129    N        0.57234    0.05918    0.29771    1.000
    N3130    N        0.55919    0.13528    0.30991    1.000
    Si3131   Si       0.57103    0.13741    0.35235    1.000
    N3132    N        0.54619    0.19607    0.33487    1.000
    N3133    N        0.53729    0.19346    0.26537    1.000
    Si3134   Si       0.53331    0.17063    0.30168    1.000
    N3135    N        0.55295    0.06885    0.40763    1.000
    Si3136   Si       0.54638    0.10927    0.45682    1.000
    N3137    N        0.52855    0.02940    0.45419    1.000
    N3138    N        0.56966    0.07465    0.47310    1.000
    Si3139   Si       0.54007    0.04420    0.49514    1.000
    N3140    N        0.52986    0.13196    0.49099    1.000
    N3141    N        0.57791    0.13229    0.43451    1.000
    N3142    N        0.54238    0.15060    0.38076    1.000
    N3143    N        0.52063    0.17180    0.43554    1.000
    Si3144   Si       0.56000    0.16725    0.41770    1.000
    Si3145   Si       0.53485    0.10831    0.52651    1.000
    N3146    N        0.56099    0.05698    0.59009    1.000
    Si3147   Si       0.53156    0.09082    0.59154    1.000
    Si3148   Si       0.54527    0.01832    0.60850    1.000
    N3149    N        0.56776    0.02242    0.51713    1.000
    N3150    N        0.55959    0.11805    0.60952    1.000
    N3151    N        0.51475    0.12041    0.56272    1.000
    Si3152   Si       0.53759    0.20482    0.53030    1.000
    Si3153   Si       0.55921    0.15855    0.59133    1.000
    N3154    N        0.56110    0.17573    0.55091    1.000
    N3155    N        0.56294    0.22980    0.50655    1.000
    N3156    N        0.52916    0.18155    0.61156    1.000
    N3157    N        0.52562    0.23317    0.56301    1.000
    N3158    N        0.55622    0.01992    0.65085    1.000
    Si3159   Si       0.55576    0.11810    0.65585    1.000
    N3160    N        0.55047    0.08386    0.68326    1.000
    Si3161   Si       0.52014    0.09143    0.71378    1.000
    Si3162   Si       0.53131    0.20339    0.64981    1.000
    N3163    N        0.57115    0.21333    0.65650    1.000
    N3164    N        0.52375    0.24388    0.74124    1.000
    N3165    N        0.54340    0.06038    0.81470    1.000
    Si3166   Si       0.55628    0.08594    0.84630    1.000
    Si3167   Si       0.56526    0.05848    0.77414    1.000
    N3168    N        0.52521    0.11263    0.85865    1.000
    Si3169   Si       0.55418    0.01416    0.86533    1.000
    N3170    N        0.54649    0.12984    0.79525    1.000
    N3171    N        0.53251    0.05982    0.74614    1.000
    Si3172   Si       0.56123    0.21070    0.84164    1.000
    N3173    N        0.54179    0.17271    0.84691    1.000
    N3174    N        0.54318    0.23418    0.80929    1.000
    Si3175   Si       0.53290    0.15239    0.76015    1.000
    Si3176   Si       0.53259    0.21418    0.77141    1.000
    N3177    N        0.55957    0.18545    0.75214    1.000
    N3178    N        0.55572    0.05754    0.87846    1.000
    N3179    N        0.52955    0.02162    0.97874    1.000
    N3180    N        0.52639    0.10623    0.94021    1.000
    Si3181   Si       0.55475    0.08530    0.91488    1.000
    Si3182   Si       0.55558    0.01986    0.94242    1.000
    N3183    N        0.57735    0.05755    0.94269    1.000
    N3184    N        0.57561    0.12148    0.89894    1.000
    N3185    N        0.52856    0.17060    0.91570    1.000
    N3186    N        0.57059    0.16704    0.97046    1.000
    N3187    N        0.54366    0.23433    0.87363    1.000
    Si3188   Si       0.54322    0.14696    0.88189    1.000
    Si3189   Si       0.53474    0.14881    0.95144    1.000
    Si3190   Si       0.54906    0.30004    0.03036    1.000
    N3191    N        0.56466    0.33562    0.00700    1.000
    N3192    N        0.55604    0.37365    0.08062    1.000
    N3193    N        0.53118    0.27135    0.99992    1.000
    N3194    N        0.51907    0.31716    0.05927    1.000
    Si3195   Si       0.51927    0.36083    0.06227    1.000
    Si3196   Si       0.55566    0.43726    0.00297    1.000
    N3197    N        0.54164    0.42714    0.04402    1.000
    Si3198   Si       0.56134    0.41977    0.08178    1.000
    Si3199   Si       0.55417    0.49420    0.09714    1.000
    N3200    N        0.54984    0.45159    0.10647    1.000
    Si3201   Si       0.52922    0.35454    0.24248    1.000
    N3202    N        0.52720    0.34189    0.14792    1.000
    Si3203   Si       0.54087    0.29956    0.14149    1.000
    N3204    N        0.53697    0.27980    0.18030    1.000
    Si3205   Si       0.54745    0.37494    0.16748    1.000
    N3206    N        0.55211    0.37583    0.21140    1.000
    N3207    N        0.54190    0.46722    0.17224    1.000
    Si3208   Si       0.57697    0.48934    0.16877    1.000
    Si3209   Si       0.52026    0.44665    0.13985    1.000
    N3210    N        0.54901    0.32190    0.26347    1.000
    N3211    N        0.56729    0.37015    0.31598    1.000
    Si3212   Si       0.56963    0.33574    0.34103    1.000
    N3213    N        0.52841    0.32711    0.35656    1.000
    N3214    N        0.53379    0.25877    0.35240    1.000
    N3215    N        0.53796    0.50079    0.28450    1.000
    Si3216   Si       0.53720    0.39881    0.30719    1.000
    N3217    N        0.54840    0.48487    0.35609    1.000
    Si3218   Si       0.53609    0.47106    0.31681    1.000
    N3219    N        0.56202    0.43632    0.30405    1.000
    N3220    N        0.51823    0.38925    0.27041    1.000
    N3221    N        0.51576    0.40342    0.34511    1.000
    N3222    N        0.55504    0.28410    0.46633    1.000
    N3223    N        0.52523    0.30683    0.41757    1.000
    Si3224   Si       0.56889    0.29520    0.42595    1.000
    N3225    N        0.55067    0.37310    0.47980    1.000
    Si3226   Si       0.56902    0.37256    0.43814    1.000
    N3227    N        0.53551    0.37498    0.40933    1.000
    Si3228   Si       0.53455    0.40797    0.38275    1.000
    Si3229   Si       0.54708    0.47125    0.39736    1.000
    N3230    N        0.51752    0.44386    0.40460    1.000
    Si3231   Si       0.54417    0.27088    0.57482    1.000
    Si3232   Si       0.54793    0.27024    0.50554    1.000
    Si3233   Si       0.56788    0.36867    0.59272    1.000
    N3234    N        0.52746    0.35417    0.60035    1.000
    N3235    N        0.55837    0.27851    0.61398    1.000
    N3236    N        0.56763    0.28663    0.54115    1.000
    N3237    N        0.56120    0.38913    0.55412    1.000
    Si3238   Si       0.54044    0.46726    0.60522    1.000
    Si3239   Si       0.54117    0.42632    0.54635    1.000
    Si3240   Si       0.57001    0.48860    0.51352    1.000
    N3241    N        0.57462    0.45504    0.54276    1.000
    N3242    N        0.53676    0.50461    0.58274    1.000
    Si3243   Si       0.57388    0.37278    0.66485    1.000
    Si3244   Si       0.55632    0.26449    0.72249    1.000
    Si3245   Si       0.52811    0.27315    0.64514    1.000
    N3246    N        0.53202    0.36753    0.66951    1.000
    N3247    N        0.54883    0.36907    0.73791    1.000
    N3248    N        0.55359    0.26923    0.67907    1.000
    N3249    N        0.57321    0.30604    0.73097    1.000
    Si3250   Si       0.53896    0.49669    0.67095    1.000
    N3251    N        0.55150    0.43843    0.73179    1.000
    Si3252   Si       0.57340    0.40304    0.73836    1.000
    N3253    N        0.57622    0.49398    0.69166    1.000
    N3254    N        0.51855    0.47213    0.64155    1.000
    Si3255   Si       0.55967    0.33390    0.76096    1.000
    Si3256   Si       0.53749    0.26664    0.84261    1.000
    N3257    N        0.57035    0.29238    0.84431    1.000
    N3258    N        0.52163    0.32666    0.78029    1.000
    N3259    N        0.55090    0.45687    0.82657    1.000
    Si3260   Si       0.54925    0.50253    0.83135    1.000
    N3261    N        0.54947    0.35414    0.89177    1.000
    Si3262   Si       0.53367    0.32824    0.92167    1.000
    N3263    N        0.56164    0.29856    0.93782    1.000
    Si3264   Si       0.53830    0.36646    0.99075    1.000
    Si3265   Si       0.54571    0.26110    0.95904    1.000
    N3266    N        0.53925    0.47144    0.93537    1.000
    Si3267   Si       0.53221    0.47044    0.89030    1.000
    N3268    N        0.56310    0.39997    0.98115    1.000
    N3269    N        0.57401    0.45744    0.88705    1.000
    N3270    N        0.54861    0.57228    0.08745    1.000
    N3271    N        0.53840    0.53533    0.02030    1.000
    Si3272   Si       0.52298    0.54838    0.05887    1.000
    Si3273   Si       0.57333    0.60795    0.07190    1.000
    N3274    N        0.51948    0.51316    0.08447    1.000
    Si3275   Si       0.57400    0.51101    0.02545    1.000
    N3276    N        0.54780    0.64007    0.06036    1.000
    Si3277   Si       0.52991    0.66571    0.09003    1.000
    N3278    N        0.54889    0.70580    0.03315    1.000
    N3279    N        0.54858    0.70413    0.09938    1.000
    Si3280   Si       0.53670    0.66532    0.02507    1.000
    Si3281   Si       0.53140    0.72678    0.06696    1.000
    Si3282   Si       0.55463    0.55658    0.12766    1.000
    N3283    N        0.54406    0.58120    0.21123    1.000
    Si3284   Si       0.53316    0.54130    0.19624    1.000
    N3285    N        0.57231    0.51960    0.19984    1.000
    N3286    N        0.57195    0.51635    0.13190    1.000
    N3287    N        0.52152    0.55169    0.15568    1.000
    Si3288   Si       0.57092    0.58776    0.24372    1.000
    Si3289   Si       0.55934    0.72104    0.13844    1.000
    Si3290   Si       0.53953    0.65421    0.16097    1.000
    N3291    N        0.52097    0.71458    0.23008    1.000
    N3292    N        0.53548    0.69933    0.16558    1.000
    Si3293   Si       0.56336    0.71485    0.23877    1.000
    N3294    N        0.54782    0.56854    0.27521    1.000
    Si3295   Si       0.55847    0.53538    0.30081    1.000
    N3296    N        0.53614    0.62012    0.31611    1.000
    N3297    N        0.53324    0.54573    0.33442    1.000
    Si3298   Si       0.55747    0.52758    0.36802    1.000
    N3299    N        0.57512    0.62966    0.25257    1.000
    Si3300   Si       0.54945    0.63543    0.35492    1.000
    N3301    N        0.55397    0.67596    0.33664    1.000
    Si3302   Si       0.55403    0.65312    0.29240    1.000
    Si3303   Si       0.52689    0.70962    0.34004    1.000
    N3304    N        0.52312    0.72793    0.30068    1.000
    N3305    N        0.54296    0.73790    0.36809    1.000
    N3306    N        0.57380    0.69106    0.27419    1.000
    N3307    N        0.55067    0.58293    0.41873    1.000
    Si3308   Si       0.54302    0.54674    0.43924    1.000
    N3309    N        0.55056    0.51508    0.41031    1.000
    N3310    N        0.53806    0.58780    0.49006    1.000
    N3311    N        0.51529    0.63334    0.38169    1.000
    Si3312   Si       0.54955    0.74639    0.41079    1.000
    Si3313   Si       0.56355    0.69475    0.45916    1.000
    N3314    N        0.54868    0.66727    0.48726    1.000
    N3315    N        0.53418    0.71169    0.43331    1.000
    N3316    N        0.53997    0.56249    0.54758    1.000
    Si3317   Si       0.52942    0.60256    0.55796    1.000
    N3318    N        0.52995    0.61028    0.60143    1.000
    Si3319   Si       0.56283    0.53258    0.56975    1.000
    Si3320   Si       0.55497    0.54882    0.50607    1.000
    Si3321   Si       0.55688    0.62550    0.49802    1.000
    N3322    N        0.54560    0.63700    0.53956    1.000
    Si3323   Si       0.56314    0.62615    0.62238    1.000
    N3324    N        0.53341    0.50799    0.50460    1.000
    Si3325   Si       0.54492    0.67892    0.52840    1.000
    N3326    N        0.56422    0.71249    0.61333    1.000
    N3327    N        0.52420    0.75409    0.57633    1.000
    Si3328   Si       0.55839    0.75474    0.60201    1.000
    N3329    N        0.52753    0.59797    0.69313    1.000
    Si3330   Si       0.55791    0.57106    0.67622    1.000
    N3331    N        0.53426    0.53876    0.65590    1.000
    Si3332   Si       0.57623    0.75269    0.73295    1.000
    Si3333   Si       0.53231    0.69628    0.63980    1.000
    N3334    N        0.53272    0.65733    0.72355    1.000
    N3335    N        0.54359    0.65494    0.65002    1.000
    Si3336   Si       0.52080    0.64138    0.68506    1.000
    Si3337   Si       0.52402    0.69821    0.72145    1.000
    N3338    N        0.52456    0.70830    0.68076    1.000
    N3339    N        0.55797    0.71588    0.74591    1.000
    N3340    N        0.53049    0.60137    0.77400    1.000
    Si3341   Si       0.53980    0.62398    0.81186    1.000
    N3342    N        0.52878    0.53069    0.80400    1.000
    N3343    N        0.57002    0.60016    0.83053    1.000
    Si3344   Si       0.55216    0.63372    0.75353    1.000
    Si3345   Si       0.57064    0.69899    0.78401    1.000
    N3346    N        0.55443    0.66002    0.79010    1.000
    Si3347   Si       0.52747    0.74189    0.82418    1.000
    N3348    N        0.56873    0.73128    0.81350    1.000
    N3349    N        0.53486    0.50942    0.87196    1.000
    Si3350   Si       0.56795    0.59600    0.87416    1.000
    Si3351   Si       0.53560    0.55341    0.97800    1.000
    N3352    N        0.54644    0.54434    0.93707    1.000
    N3353    N        0.55799    0.59127    0.98596    1.000
    N3354    N        0.52426    0.58342    0.88046    1.000
    Si3355   Si       0.52450    0.54356    0.89886    1.000
    Si3356   Si       0.54341    0.63048    0.97353    1.000
    Si3357   Si       0.52022    0.72368    0.89984    1.000
    N3358    N        0.54684    0.75812    0.91413    1.000
    Si3359   Si       0.56162    0.66574    0.90563    1.000
    N3360    N        0.57115    0.66174    0.99006    1.000
    N3361    N        0.53538    0.69022    0.87665    1.000
    N3362    N        0.53387    0.64418    0.93271    1.000
    N3363    N        0.54983    0.83585    0.02680    1.000
    N3364    N        0.54946    0.87225    0.09896    1.000
    N3365    N        0.56674    0.81682    0.09496    1.000
    Si3366   Si       0.52729    0.83564    0.10049    1.000
    Si3367   Si       0.56874    0.80636    0.05257    1.000
    N3368    N        0.55410    0.76506    0.05033    1.000
    N3369    N        0.56433    0.98246    0.03597    1.000
    Si3370   Si       0.53686    0.90562    0.00655    1.000
    N3371    N        0.53354    0.94256    0.09509    1.000
    Si3372   Si       0.57000    0.96281    0.11027    1.000
    N3373    N        0.55172    0.00371    0.10329    1.000
    Si3374   Si       0.53015    0.90259    0.07518    1.000
    N3375    N        0.56287    0.91475    0.04020    1.000
    N3376    N        0.54634    0.80657    0.19900    1.000
    Si3377   Si       0.52848    0.79162    0.16267    1.000
    N3378    N        0.55646    0.76426    0.14282    1.000
    N3379    N        0.54423    0.91879    0.19261    1.000
    Si3380   Si       0.55091    0.96259    0.18341    1.000
    N3381    N        0.56901    0.97590    0.22018    1.000
    N3382    N        0.51720    0.98548    0.16760    1.000
    N3383    N        0.55583    0.84908    0.31966    1.000
    N3384    N        0.56875    0.77986    0.31080    1.000
    Si3385   Si       0.57162    0.76449    0.35146    1.000
    Si3386   Si       0.54396    0.76031    0.28220    1.000
    N3387    N        0.57471    0.80366    0.37025    1.000
    N3388    N        0.53989    0.91845    0.29547    1.000
    Si3389   Si       0.56585    0.89006    0.31661    1.000
    N3390    N        0.56450    0.99121    0.28983    1.000
    N3391    N        0.56310    0.90050    0.35982    1.000
    Si3392   Si       0.53119    0.96122    0.29535    1.000
    Si3393   Si       0.54697    0.99984    0.25045    1.000
    N3394    N        0.56651    0.78730    0.47784    1.000
    N3395    N        0.52884    0.78485    0.41344    1.000
    Si3396   Si       0.54627    0.82249    0.39595    1.000
    N3397    N        0.56088    0.85828    0.41855    1.000
    Si3398   Si       0.54674    0.87323    0.45895    1.000
    N3399    N        0.52296    0.83818    0.47785    1.000
    Si3400   Si       0.53272    0.88767    0.38981    1.000
    N3401    N        0.54537    0.90162    0.49231    1.000
    Si3402   Si       0.54271    0.94365    0.43352    1.000
    N3403    N        0.52216    0.90396    0.43200    1.000
    Si3404   Si       0.57220    0.99247    0.38782    1.000
    N3405    N        0.53634    0.97011    0.39871    1.000
    N3406    N        0.55286    0.82170    0.54383    1.000
    N3407    N        0.53389    0.84739    0.61156    1.000
    Si3408   Si       0.54118    0.80867    0.50412    1.000
    Si3409   Si       0.52524    0.84466    0.56852    1.000
    N3410    N        0.56702    0.98843    0.58883    1.000
    Si3411   Si       0.57413    0.99037    0.54574    1.000
    N3412    N        0.54544    0.78270    0.73600    1.000
    N3413    N        0.55328    0.78020    0.63710    1.000
    N3414    N        0.53212    0.83088    0.68272    1.000
    Si3415   Si       0.52949    0.81760    0.64044    1.000
    Si3416   Si       0.56821    0.85219    0.69554    1.000
    N3417    N        0.55435    0.86923    0.73228    1.000
    Si3418   Si       0.54612    0.98317    0.67304    1.000
    N3419    N        0.52525    0.90252    0.65268    1.000
    N3420    N        0.55387    0.98434    0.71579    1.000
    Si3421   Si       0.56821    0.91130    0.64738    1.000
    N3422    N        0.57292    0.95534    0.65317    1.000
    Si3423   Si       0.52218    0.96831    0.74210    1.000
    Si3424   Si       0.53331    0.80380    0.77339    1.000
    N3425    N        0.56754    0.82431    0.78680    1.000
    N3426    N        0.53961    0.87011    0.86284    1.000
    Si3427   Si       0.57427    0.86525    0.77191    1.000
    N3428    N        0.53975    0.88736    0.79012    1.000
    Si3429   Si       0.53791    0.90016    0.83202    1.000
    N3430    N        0.53211    0.97037    0.78550    1.000
    Si3431   Si       0.57201    0.98335    0.79300    1.000
    N3432    N        0.57858    0.98871    0.83601    1.000
    Si3433   Si       0.51782    0.89240    0.75279    1.000
    N3434    N        0.57155    0.80677    0.87644    1.000
    Si3435   Si       0.53331    0.78569    0.88260    1.000
    Si3436   Si       0.56904    0.76953    0.95096    1.000
    Si3437   Si       0.56435    0.83958    0.98605    1.000
    N3438    N        0.54679    0.80133    0.97230    1.000
    N3439    N        0.55437    0.88096    0.97435    1.000
    N3440    N        0.55893    0.92412    0.92658    1.000
    N3441    N        0.55354    0.99569    0.90688    1.000
    Si3442   Si       0.52701    0.90294    0.94623    1.000
    N3443    N        0.61030    0.07980    0.04854    1.000
    Si3444   Si       0.62768    0.08174    0.08742    1.000
    N3445    N        0.62932    0.11794    0.10962    1.000
    N3446    N        0.59335    0.06523    0.11405    1.000
    Si3447   Si       0.63236    0.06089    0.01616    1.000
    N3448    N        0.61531    0.02295    0.00371    1.000
    Si3449   Si       0.60207    0.20625    0.05744    1.000
    N3450    N        0.62601    0.14700    0.00815    1.000
    N3451    N        0.58897    0.22885    0.09254    1.000
    N3452    N        0.62511    0.23306    0.03041    1.000
    Si3453   Si       0.58192    0.15293    0.01049    1.000
    N3454    N        0.62956    0.17665    0.06925    1.000
    Si3455   Si       0.63279    0.16120    0.11159    1.000
    Si3456   Si       0.61004    0.09927    0.14958    1.000
    Si3457   Si       0.60582    0.03544    0.14487    1.000
    Si3458   Si       0.60930    0.11812    0.22264    1.000
    N3459    N        0.60914    0.03735    0.23654    1.000
    N3460    N        0.63177    0.06326    0.16424    1.000
    N3461    N        0.62677    0.13039    0.17881    1.000
    N3462    N        0.57957    0.08890    0.20468    1.000
    N3463    N        0.57890    0.15186    0.20926    1.000
    N3464    N        0.60759    0.25417    0.17618    1.000
    N3465    N        0.60654    0.18141    0.14109    1.000
    N3466    N        0.63193    0.19713    0.21093    1.000
    Si3467   Si       0.61060    0.17079    0.18287    1.000
    Si3468   Si       0.57374    0.20178    0.11986    1.000
    Si3469   Si       0.60565    0.06677    0.26951    1.000
    N3470    N        0.59843    0.10949    0.26453    1.000
    N3471    N        0.62342    0.01511    0.32403    1.000
    N3472    N        0.58995    0.10043    0.36709    1.000
    Si3473   Si       0.57982    0.02204    0.31644    1.000
    Si3474   Si       0.60200    0.14327    0.29428    1.000
    N3475    N        0.60010    0.23534    0.34116    1.000
    N3476    N        0.60758    0.16311    0.34357    1.000
    N3477    N        0.60521    0.17814    0.26779    1.000
    Si3478   Si       0.58462    0.19800    0.35742    1.000
    Si3479   Si       0.60352    0.10486    0.40775    1.000
    N3480    N        0.61435    0.06853    0.42475    1.000
    N3481    N        0.62952    0.12073    0.47891    1.000
    Si3482   Si       0.57698    0.04914    0.43684    1.000
    N3483    N        0.63773    0.13098    0.41415    1.000
    Si3484   Si       0.60216    0.09393    0.49797    1.000
    Si3485   Si       0.61430    0.15159    0.45347    1.000
    N3486    N        0.60561    0.24277    0.45124    1.000
    N3487    N        0.58775    0.19566    0.40052    1.000
    Si3488   Si       0.59994    0.21813    0.48664    1.000
    Si3489   Si       0.62193    0.21742    0.42052    1.000
    N3490    N        0.59217    0.17501    0.48441    1.000
    Si3491   Si       0.60069    0.07084    0.60192    1.000
    Si3492   Si       0.61026    0.02609    0.50963    1.000
    N3493    N        0.62816    0.10365    0.58755    1.000
    N3494    N        0.57663    0.11375    0.52777    1.000
    N3495    N        0.62932    0.06445    0.51687    1.000
    N3496    N        0.63349    0.04165    0.59583    1.000
    N3497    N        0.60033    0.16910    0.60614    1.000
    Si3498   Si       0.58893    0.15646    0.52382    1.000
    Si3499   Si       0.63097    0.14705    0.58320    1.000
    N3500    N        0.62932    0.15994    0.54196    1.000
    N3501    N        0.63257    0.22389    0.51509    1.000
    N3502    N        0.59869    0.03382    0.70551    1.000
    N3503    N        0.60374    0.07432    0.64558    1.000
    N3504    N        0.62550    0.09704    0.70653    1.000
    Si3505   Si       0.57827    0.05113    0.67323    1.000
    N3506    N        0.58983    0.23444    0.72115    1.000
    Si3507   Si       0.59323    0.24444    0.67742    1.000
    N3508    N        0.58392    0.14830    0.67139    1.000
    Si3509   Si       0.60066    0.18316    0.64695    1.000
    N3510    N        0.62311    0.16202    0.72890    1.000
    Si3511   Si       0.59867    0.19547    0.74177    1.000
    N3512    N        0.63085    0.20917    0.66601    1.000
    Si3513   Si       0.61756    0.13850    0.69437    1.000
    N3514    N        0.59587    0.08943    0.76943    1.000
    N3515    N        0.59586    0.10507    0.83846    1.000
    Si3516   Si       0.59092    0.12204    0.79846    1.000
    Si3517   Si       0.63088    0.08433    0.74539    1.000
    N3518    N        0.58316    0.01925    0.77016    1.000
    N3519    N        0.60347    0.21337    0.84316    1.000
    N3520    N        0.61808    0.15669    0.79550    1.000
    N3521    N        0.62340    0.21702    0.77094    1.000
    Si3522   Si       0.62860    0.19907    0.81087    1.000
    Si3523   Si       0.62985    0.24965    0.74296    1.000
    Si3524   Si       0.61297    0.11454    0.87806    1.000
    Si3525   Si       0.61932    0.06467    0.94016    1.000
    N3526    N        0.63234    0.08797    0.90806    1.000
    N3527    N        0.63476    0.08128    0.97626    1.000
    N3528    N        0.63737    0.02513    0.93535    1.000
    N3529    N        0.58407    0.24237    0.95464    1.000
    N3530    N        0.60237    0.18883    0.90772    1.000
    Si3531   Si       0.59391    0.19948    0.95073    1.000
    Si3532   Si       0.61647    0.22376    0.88284    1.000
    N3533    N        0.63362    0.20048    0.96732    1.000
    Si3534   Si       0.62446    0.27441    0.04032    1.000
    Si3535   Si       0.60019    0.37298    0.08312    1.000
    N3536    N        0.61440    0.36901    0.04225    1.000
    Si3537   Si       0.60547    0.34383    0.00953    1.000
    Si3538   Si       0.59583    0.27151    0.09125    1.000
    N3539    N        0.62064    0.34201    0.10149    1.000
    N3540    N        0.63155    0.30775    0.01388    1.000
    N3541    N        0.63917    0.27932    0.08121    1.000
    N3542    N        0.58303    0.28301    0.05172    1.000
    N3543    N        0.60611    0.41713    0.08805    1.000
    N3544    N        0.58079    0.47262    0.00740    1.000
    N3545    N        0.63248    0.47923    0.11894    1.000
    N3546    N        0.58361    0.50510    0.06747    1.000
    Si3547   Si       0.62338    0.50645    0.08609    1.000
    N3548    N        0.58073    0.29039    0.12748    1.000
    Si3549   Si       0.61895    0.36751    0.16576    1.000
    N3550    N        0.60680    0.32706    0.18269    1.000
    Si3551   Si       0.62463    0.33030    0.22394    1.000
    Si3552   Si       0.61362    0.29402    0.15818    1.000
    N3553    N        0.62631    0.38368    0.20514    1.000
    Si3554   Si       0.62454    0.45998    0.22626    1.000
    N3555    N        0.58422    0.38332    0.14740    1.000
    Si3556   Si       0.59055    0.38988    0.23154    1.000
    N3557    N        0.61187    0.46554    0.18526    1.000
    N3558    N        0.62311    0.50126    0.24283    1.000
    Si3559   Si       0.58869    0.31852    0.27712    1.000
    N3560    N        0.60294    0.35467    0.25523    1.000
    N3561    N        0.58082    0.30064    0.31737    1.000
    N3562    N        0.60480    0.35327    0.36380    1.000
    N3563    N        0.61410    0.29566    0.25087    1.000
    Si3564   Si       0.57390    0.27019    0.34717    1.000
    Si3565   Si       0.59730    0.38969    0.34139    1.000
    N3566    N        0.62470    0.40414    0.30788    1.000
    Si3567   Si       0.60358    0.43808    0.29010    1.000
    N3568    N        0.63313    0.46763    0.29853    1.000
    Si3569   Si       0.63052    0.50922    0.28747    1.000
    N3570    N        0.59932    0.42907    0.24695    1.000
    Si3571   Si       0.63211    0.27407    0.37719    1.000
    N3572    N        0.58859    0.28238    0.38760    1.000
    Si3573   Si       0.62238    0.34407    0.40086    1.000
    N3574    N        0.59017    0.33410    0.42896    1.000
    Si3575   Si       0.58763    0.49690    0.44220    1.000
    N3576    N        0.57657    0.41250    0.37231    1.000
    Si3577   Si       0.60445    0.42771    0.40258    1.000
    Si3578   Si       0.60751    0.43276    0.47268    1.000
    N3579    N        0.60195    0.40225    0.44071    1.000
    N3580    N        0.59039    0.47339    0.47811    1.000
    N3581    N        0.58423    0.46176    0.41695    1.000
    N3582    N        0.60400    0.34611    0.52345    1.000
    Si3583   Si       0.59922    0.31348    0.55015    1.000
    N3584    N        0.59727    0.33446    0.58901    1.000
    Si3585   Si       0.57515    0.37922    0.51436    1.000
    Si3586   Si       0.61272    0.43501    0.54621    1.000
    N3587    N        0.62139    0.41506    0.58329    1.000
    N3588    N        0.60954    0.40711    0.50903    1.000
    Si3589   Si       0.60771    0.50422    0.61462    1.000
    N3590    N        0.58155    0.46720    0.61629    1.000
    Si3591   Si       0.60326    0.42808    0.62107    1.000
    Si3592   Si       0.59051    0.30614    0.62596    1.000
    Si3593   Si       0.60283    0.31464    0.69900    1.000
    N3594    N        0.62161    0.27749    0.68436    1.000
    N3595    N        0.58995    0.33202    0.66144    1.000
    N3596    N        0.63383    0.33602    0.71966    1.000
    N3597    N        0.57805    0.39333    0.62557    1.000
    Si3598   Si       0.62934    0.41824    0.69093    1.000
    N3599    N        0.63162    0.43702    0.65292    1.000
    Si3600   Si       0.58332    0.46831    0.72562    1.000
    N3601    N        0.59249    0.39452    0.69749    1.000
    N3602    N        0.62329    0.45006    0.72070    1.000
    N3603    N        0.59629    0.34297    0.78199    1.000
    Si3604   Si       0.60964    0.29523    0.86103    1.000
    Si3605   Si       0.63135    0.32638    0.76069    1.000
    N3606    N        0.63337    0.28447    0.76956    1.000
    Si3607   Si       0.60209    0.38129    0.80542    1.000
    N3608    N        0.61756    0.44475    0.83181    1.000
    N3609    N        0.59582    0.48389    0.76488    1.000
    Si3610   Si       0.60940    0.44909    0.78981    1.000
    N3611    N        0.59055    0.41229    0.77633    1.000
    N3612    N        0.58440    0.38995    0.84508    1.000
    Si3613   Si       0.57740    0.43315    0.85189    1.000
    N3614    N        0.60812    0.26420    0.89248    1.000
    N3615    N        0.61544    0.33139    0.88550    1.000
    Si3616   Si       0.58978    0.36639    0.88157    1.000
    Si3617   Si       0.60061    0.27819    0.93237    1.000
    N3618    N        0.62433    0.37318    0.98141    1.000
    N3619    N        0.63227    0.30144    0.94591    1.000
    Si3620   Si       0.58031    0.46683    0.92834    1.000
    N3621    N        0.60416    0.44154    0.95507    1.000
    N3622    N        0.60734    0.50495    0.93046    1.000
    Si3623   Si       0.59943    0.39906    0.95515    1.000
    Si3624   Si       0.61919    0.45987    0.99100    1.000
    N3625    N        0.60539    0.39335    0.91210    1.000
    N3626    N        0.60334    0.59549    0.04224    1.000
    N3627    N        0.60335    0.53742    0.00596    1.000
    Si3628   Si       0.63064    0.62396    0.06374    1.000
    N3629    N        0.60277    0.62429    0.09779    1.000
    Si3630   Si       0.59932    0.58018    0.99844    1.000
    N3631    N        0.61767    0.73323    0.03679    1.000
    Si3632   Si       0.61118    0.65080    0.00462    1.000
    N3633    N        0.62956    0.66108    0.04209    1.000
    Si3634   Si       0.57566    0.73860    0.02268    1.000
    Si3635   Si       0.60938    0.53149    0.21467    1.000
    N3636    N        0.58740    0.57706    0.14181    1.000
    Si3637   Si       0.60567    0.61646    0.13930    1.000
    N3638    N        0.61001    0.56946    0.23659    1.000
    Si3639   Si       0.62816    0.56119    0.14090    1.000
    N3640    N        0.63051    0.53790    0.17754    1.000
    N3641    N        0.58639    0.68828    0.21341    1.000
    Si3642   Si       0.60461    0.67975    0.17579    1.000
    Si3643   Si       0.63191    0.73328    0.12595    1.000
    N3644    N        0.58204    0.64531    0.15904    1.000
    N3645    N        0.60004    0.70802    0.14288    1.000
    N3646    N        0.60062    0.52982    0.31064    1.000
    Si3647   Si       0.62159    0.55052    0.34440    1.000
    N3648    N        0.59056    0.55348    0.37247    1.000
    N3649    N        0.60527    0.64686    0.30998    1.000
    Si3650   Si       0.59859    0.68349    0.33049    1.000
    Si3651   Si       0.60042    0.66462    0.24993    1.000
    N3652    N        0.63278    0.70566    0.31611    1.000
    N3653    N        0.57599    0.75449    0.25276    1.000
    N3654    N        0.57590    0.54008    0.46704    1.000
    N3655    N        0.60026    0.62038    0.49526    1.000
    N3656    N        0.62481    0.51921    0.43396    1.000
    N3657    N        0.62158    0.58992    0.42767    1.000
    Si3658   Si       0.59052    0.58847    0.39840    1.000
    Si3659   Si       0.61573    0.55625    0.45568    1.000
    N3660    N        0.58643    0.62684    0.38070    1.000
    N3661    N        0.59374    0.74629    0.42190    1.000
    N3662    N        0.60718    0.69184    0.37261    1.000
    Si3663   Si       0.60891    0.65899    0.40001    1.000
    Si3664   Si       0.62025    0.73005    0.39169    1.000
    Si3665   Si       0.61762    0.65100    0.47180    1.000
    N3666    N        0.59493    0.66772    0.43894    1.000
    N3667    N        0.58493    0.72334    0.48279    1.000
    N3668    N        0.63584    0.68430    0.49673    1.000
    N3669    N        0.59942    0.54251    0.59331    1.000
    N3670    N        0.61993    0.58844    0.55133    1.000
    N3671    N        0.58579    0.52486    0.53328    1.000
    Si3672   Si       0.62094    0.54639    0.55218    1.000
    Si3673   Si       0.62692    0.62040    0.58240    1.000
    N3674    N        0.59408    0.64555    0.59779    1.000
    Si3675   Si       0.59148    0.68750    0.59092    1.000
    Si3676   Si       0.60976    0.71247    0.51737    1.000
    Si3677   Si       0.62670    0.74810    0.57700    1.000
    N3678    N        0.62960    0.70676    0.59346    1.000
    N3679    N        0.58159    0.69464    0.54744    1.000
    N3680    N        0.63100    0.74593    0.53286    1.000
    N3681    N        0.59327    0.62465    0.74403    1.000
    Si3682   Si       0.61313    0.56739    0.62702    1.000
    Si3683   Si       0.60625    0.58484    0.73487    1.000
    N3684    N        0.58902    0.55911    0.70334    1.000
    Si3685   Si       0.60876    0.52402    0.68930    1.000
    N3686    N        0.62165    0.52984    0.64912    1.000
    N3687    N        0.58066    0.59200    0.64389    1.000
    N3688    N        0.59307    0.74837    0.69351    1.000
    Si3689   Si       0.60719    0.58902    0.80977    1.000
    N3690    N        0.59766    0.56356    0.77360    1.000
    Si3691   Si       0.61169    0.53543    0.85603    1.000
    Si3692   Si       0.60484    0.52214    0.78467    1.000
    N3693    N        0.59015    0.51497    0.82506    1.000
    N3694    N        0.63064    0.62374    0.80049    1.000
    N3695    N        0.63386    0.56405    0.83295    1.000
    Si3696   Si       0.60619    0.75166    0.83078    1.000
    Si3697   Si       0.62117    0.64899    0.76650    1.000
    N3698    N        0.61254    0.68807    0.77610    1.000
    N3699    N        0.58903    0.55775    0.88547    1.000
    Si3700   Si       0.58884    0.54383    0.92758    1.000
    N3701    N        0.61066    0.57232    0.94811    1.000
    N3702    N        0.63078    0.61477    0.98998    1.000
    N3703    N        0.58431    0.63397    0.88815    1.000
    Si3704   Si       0.58542    0.69903    0.96839    1.000
    Si3705   Si       0.62002    0.71441    0.90025    1.000
    N3706    N        0.63037    0.68614    0.87061    1.000
    N3707    N        0.57631    0.73894    0.98053    1.000
    N3708    N        0.62622    0.68705    0.98354    1.000
    N3709    N        0.59026    0.69380    0.92547    1.000
    Si3710   Si       0.62699    0.64688    0.88743    1.000
    N3711    N        0.60886    0.74697    0.87375    1.000
    N3712    N        0.61137    0.80144    0.04238    1.000
    N3713    N        0.62614    0.86389    0.10469    1.000
    Si3714   Si       0.63056    0.76788    0.06276    1.000
    N3715    N        0.61344    0.76432    0.10236    1.000
    Si3716   Si       0.58462    0.85408    0.11932    1.000
    N3717    N        0.60157    0.94766    0.08471    1.000
    Si3718   Si       0.58864    0.94770    0.04460    1.000
    N3719    N        0.62221    0.94831    0.01958    1.000
    Si3720   Si       0.58685    0.78933    0.12336    1.000
    N3721    N        0.61638    0.79472    0.21395    1.000
    Si3722   Si       0.58797    0.82363    0.19797    1.000
    N3723    N        0.58692    0.86281    0.21884    1.000
    N3724    N        0.59354    0.81995    0.15340    1.000
    N3725    N        0.62753    0.00298    0.12506    1.000
    N3726    N        0.59049    0.88592    0.15157    1.000
    Si3727   Si       0.62256    0.96742    0.15266    1.000
    N3728    N        0.61560    0.92321    0.20657    1.000
    Si3729   Si       0.58131    0.89823    0.19251    1.000
    N3730    N        0.57799    0.96158    0.15077    1.000
    Si3731   Si       0.61061    0.96197    0.22245    1.000
    N3732    N        0.62867    0.98864    0.18907    1.000
    N3733    N        0.60408    0.82325    0.27329    1.000
    Si3734   Si       0.60799    0.78405    0.25708    1.000
    Si3735   Si       0.58861    0.81981    0.31366    1.000
    Si3736   Si       0.61263    0.86360    0.25586    1.000
    N3737    N        0.62689    0.81975    0.33605    1.000
    N3738    N        0.61535    0.75736    0.35730    1.000
    N3739    N        0.60365    0.88901    0.29498    1.000
    N3740    N        0.62830    0.90365    0.36446    1.000
    N3741    N        0.60115    0.96629    0.36974    1.000
    Si3742   Si       0.62162    0.80027    0.37596    1.000
    N3743    N        0.59043    0.85759    0.47604    1.000
    Si3744   Si       0.60116    0.85326    0.43417    1.000
    N3745    N        0.61747    0.81852    0.41745    1.000
    N3746    N        0.63461    0.77567    0.46867    1.000
    Si3747   Si       0.59572    0.75988    0.46318    1.000
    Si3748   Si       0.61710    0.92133    0.44518    1.000
    Si3749   Si       0.59380    0.92478    0.38018    1.000
    N3750    N        0.63371    0.88496    0.43057    1.000
    N3751    N        0.62390    0.99360    0.48405    1.000
    N3752    N        0.58187    0.92952    0.42273    1.000
    N3753    N        0.58969    0.00645    0.42710    1.000
    Si3754   Si       0.62992    0.99139    0.44077    1.000
    N3755    N        0.61844    0.92309    0.48818    1.000
    Si3756   Si       0.59307    0.81056    0.56289    1.000
    N3757    N        0.59208    0.77171    0.58187    1.000
    N3758    N        0.61511    0.81409    0.52551    1.000
    N3759    N        0.61160    0.84001    0.58804    1.000
    Si3760   Si       0.61392    0.85671    0.51240    1.000
    N3761    N        0.59888    0.88636    0.54162    1.000
    Si3762   Si       0.60461    0.88737    0.58546    1.000
    Si3763   Si       0.62272    0.96343    0.51627    1.000
    N3764    N        0.61886    0.99813    0.54522    1.000
    Si3765   Si       0.58859    0.95950    0.61155    1.000
    N3766    N        0.63024    0.96950    0.60869    1.000
    Si3767   Si       0.58223    0.91378    0.51106    1.000
    N3768    N        0.58192    0.91566    0.60679    1.000
    N3769    N        0.57952    0.95179    0.52775    1.000
    N3770    N        0.62714    0.76894    0.64523    1.000
    Si3771   Si       0.58776    0.77986    0.66294    1.000
    N3772    N        0.59336    0.81598    0.68542    1.000
    Si3773   Si       0.63136    0.81701    0.70777    1.000
    N3774    N        0.58913    0.88326    0.67230    1.000
    Si3775   Si       0.59235    0.99718    0.73374    1.000
    N3776    N        0.63575    0.98346    0.71404    1.000
    Si3777   Si       0.63041    0.89433    0.68413    1.000
    N3778    N        0.63514    0.91220    0.72411    1.000
    N3779    N        0.60844    0.85709    0.84282    1.000
    N3780    N        0.61710    0.79232    0.82072    1.000
    Si3781   Si       0.60617    0.80194    0.77983    1.000
    N3782    N        0.62055    0.83096    0.74980    1.000
    N3783    N        0.60693    0.75981    0.76335    1.000
    N3784    N        0.61067    0.89027    0.77848    1.000
    Si3785   Si       0.62006    0.89577    0.82352    1.000
    Si3786   Si       0.59525    0.95294    0.85282    1.000
    N3787    N        0.59816    0.96076    0.76611    1.000
    Si3788   Si       0.62582    0.92932    0.76400    1.000
    N3789    N        0.57913    0.91626    0.83597    1.000
    N3790    N        0.59710    0.86141    0.91476    1.000
    N3791    N        0.60379    0.78884    0.93364    1.000
    N3792    N        0.60748    0.83670    0.98311    1.000
    Si3793   Si       0.60809    0.78751    0.88965    1.000
    Si3794   Si       0.61702    0.83063    0.94118    1.000
    Si3795   Si       0.57705    0.85138    0.87334    1.000
    N3796    N        0.60930    0.95574    0.89668    1.000
    N3797    N        0.58311    0.98885    0.96107    1.000
    Si3798   Si       0.58710    0.89320    0.94293    1.000
    N3799    N        0.62144    0.91366    0.96066    1.000
    Si3800   Si       0.62558    0.99993    0.96752    1.000
    Si3801   Si       0.57736    0.96348    0.92388    1.000
    N3802    N        0.66413    0.05629    0.08660    1.000
    N3803    N        0.67686    0.05951    0.01781    1.000
    Si3804   Si       0.66389    0.01527    0.10537    1.000
    N3805    N        0.67511    0.18868    0.01220    1.000
    Si3806   Si       0.65352    0.15704    0.04080    1.000
    N3807    N        0.69138    0.14166    0.05537    1.000
    Si3808   Si       0.65260    0.22292    0.99980    1.000
    N3809    N        0.68847    0.02361    0.14074    1.000
    N3810    N        0.65325    0.11778    0.23211    1.000
    Si3811   Si       0.66856    0.12373    0.19260    1.000
    Si3812   Si       0.67279    0.05113    0.17027    1.000
    N3813    N        0.67957    0.03156    0.20941    1.000
    N3814    N        0.68890    0.09140    0.17203    1.000
    Si3815   Si       0.64421    0.01247    0.22306    1.000
    N3816    N        0.67529    0.16896    0.12125    1.000
    N3817    N        0.67005    0.22709    0.15571    1.000
    Si3818   Si       0.64217    0.23241    0.18934    1.000
    N3819    N        0.66636    0.25182    0.21944    1.000
    Si3820   Si       0.69350    0.18840    0.15618    1.000
    Si3821   Si       0.65759    0.03874    0.31122    1.000
    Si3822   Si       0.66257    0.10773    0.27152    1.000
    N3823    N        0.64708    0.06715    0.28138    1.000
    N3824    N        0.64499    0.13517    0.30206    1.000
    N3825    N        0.69317    0.05672    0.33170    1.000
    N3826    N        0.66115    0.20077    0.32313    1.000
    Si3827   Si       0.65042    0.15958    0.33695    1.000
    N3828    N        0.68254    0.18745    0.25763    1.000
    N3829    N        0.68438    0.15142    0.36616    1.000
    Si3830   Si       0.64056    0.20017    0.25454    1.000
    Si3831   Si       0.63833    0.23807    0.31890    1.000
    N3832    N        0.63768    0.23811    0.27509    1.000
    Si3833   Si       0.69525    0.19923    0.29571    1.000
    N3834    N        0.67881    0.07404    0.45325    1.000
    N3835    N        0.67005    0.08274    0.38697    1.000
    Si3836   Si       0.65697    0.05825    0.41978    1.000
    N3837    N        0.66229    0.01593    0.42642    1.000
    Si3838   Si       0.68032    0.12393    0.40067    1.000
    Si3839   Si       0.67161    0.11348    0.47227    1.000
    Si3840   Si       0.68167    0.18030    0.45715    1.000
    N3841    N        0.64076    0.18743    0.44744    1.000
    N3842    N        0.64801    0.23646    0.39284    1.000
    Si3843   Si       0.68920    0.22798    0.40057    1.000
    Si3844   Si       0.67148    0.07060    0.52569    1.000
    Si3845   Si       0.66129    0.07705    0.59420    1.000
    N3846    N        0.68989    0.07531    0.56508    1.000
    N3847    N        0.69032    0.10839    0.50958    1.000
    N3848    N        0.67326    0.21725    0.56104    1.000
    N3849    N        0.66952    0.15885    0.60133    1.000
    Si3850   Si       0.65770    0.19125    0.52721    1.000
    N3851    N        0.68953    0.18350    0.49989    1.000
    Si3852   Si       0.65205    0.25438    0.54046    1.000
    N3853    N        0.67373    0.08754    0.63213    1.000
    N3854    N        0.66530    0.05164    0.68217    1.000
    Si3855   Si       0.64191    0.08694    0.66574    1.000
    Si3856   Si       0.67964    0.13078    0.63523    1.000
    Si3857   Si       0.64408    0.02624    0.70883    1.000
    N3858    N        0.64661    0.13362    0.66424    1.000
    N3859    N        0.68356    0.25222    0.65598    1.000
    N3860    N        0.66638    0.23792    0.72339    1.000
    Si3861   Si       0.66929    0.22103    0.68042    1.000
    N3862    N        0.65918    0.11050    0.76414    1.000
    Si3863   Si       0.67700    0.02992    0.77661    1.000
    Si3864   Si       0.68685    0.03628    0.83805    1.000
    N3865    N        0.69119    0.06303    0.80321    1.000
    N3866    N        0.64861    0.04423    0.74911    1.000
    Si3867   Si       0.69441    0.10441    0.78773    1.000
    Si3868   Si       0.64858    0.15215    0.76386    1.000
    N3869    N        0.66592    0.19509    0.82696    1.000
    Si3870   Si       0.68623    0.14042    0.85713    1.000
    N3871    N        0.68767    0.17253    0.75994    1.000
    Si3872   Si       0.68866    0.20982    0.86308    1.000
    Si3873   Si       0.67945    0.08551    0.98289    1.000
    N3874    N        0.67071    0.04758    0.87575    1.000
    Si3875   Si       0.67362    0.08327    0.90076    1.000
    N3876    N        0.68866    0.12676    0.98935    1.000
    Si3877   Si       0.66929    0.01681    0.90820    1.000
    Si3878   Si       0.65470    0.16228    0.97960    1.000
    Si3879   Si       0.64371    0.17190    0.90619    1.000
    N3880    N        0.65777    0.21168    0.89293    1.000
    N3881    N        0.64535    0.14125    0.87332    1.000
    N3882    N        0.66149    0.14837    0.93757    1.000
    Si3883   Si       0.65277    0.31285    0.10535    1.000
    N3884    N        0.68109    0.37115    0.04037    1.000
    N3885    N        0.69533    0.31993    0.09603    1.000
    Si3886   Si       0.66707    0.45669    0.04069    1.000
    N3887    N        0.67253    0.43159    0.07456    1.000
    N3888    N        0.64339    0.49108    0.05210    1.000
    Si3889   Si       0.64656    0.38745    0.01864    1.000
    Si3890   Si       0.64165    0.43767    0.10410    1.000
    N3891    N        0.64174    0.43052    0.01672    1.000
    N3892    N        0.66867    0.32358    0.21330    1.000
    Si3893   Si       0.67887    0.32565    0.17047    1.000
    N3894    N        0.65989    0.35905    0.15281    1.000
    N3895    N        0.65697    0.29547    0.14664    1.000
    Si3896   Si       0.68955    0.26336    0.13868    1.000
    N3897    N        0.67953    0.49058    0.17394    1.000
    N3898    N        0.66527    0.44218    0.23171    1.000
    N3899    N        0.65584    0.42546    0.14439    1.000
    Si3900   Si       0.68619    0.39626    0.15223    1.000
    Si3901   Si       0.66210    0.39839    0.22503    1.000
    Si3902   Si       0.64668    0.46665    0.15805    1.000
    N3903    N        0.69735    0.39284    0.19623    1.000
    Si3904   Si       0.67228    0.30790    0.31705    1.000
    N3905    N        0.68117    0.29971    0.27427    1.000
    N3906    N        0.64763    0.27659    0.33536    1.000
    N3907    N        0.67105    0.35165    0.32475    1.000
    N3908    N        0.67230    0.37420    0.25935    1.000
    Si3909   Si       0.65137    0.27301    0.25424    1.000
    Si3910   Si       0.69037    0.33410    0.24837    1.000
    Si3911   Si       0.66294    0.38512    0.29955    1.000
    Si3912   Si       0.67660    0.45875    0.30777    1.000
    N3913    N        0.69018    0.41910    0.30886    1.000
    N3914    N        0.68597    0.47693    0.34471    1.000
    N3915    N        0.65048    0.30865    0.39735    1.000
    N3916    N        0.65734    0.36541    0.47872    1.000
    N3917    N        0.65269    0.37419    0.40928    1.000
    N3918    N        0.68465    0.49216    0.47849    1.000
    Si3919   Si       0.67330    0.45528    0.49857    1.000
    N3920    N        0.68199    0.48791    0.40933    1.000
    Si3921   Si       0.64554    0.39378    0.44753    1.000
    N3922    N        0.63955    0.43940    0.38428    1.000
    N3923    N        0.64999    0.43453    0.46672    1.000
    Si3924   Si       0.67968    0.45600    0.38152    1.000
    N3925    N        0.67070    0.35119    0.60183    1.000
    Si3926   Si       0.64234    0.31837    0.59066    1.000
    Si3927   Si       0.63722    0.37320    0.51643    1.000
    N3928    N        0.67902    0.26872    0.50912    1.000
    N3929    N        0.63739    0.29144    0.55659    1.000
    N3930    N        0.63238    0.29205    0.62300    1.000
    N3931    N        0.66819    0.38444    0.54386    1.000
    N3932    N        0.64472    0.48479    0.60366    1.000
    Si3933   Si       0.66013    0.39215    0.58718    1.000
    N3934    N        0.64752    0.45918    0.53470    1.000
    N3935    N        0.68107    0.42388    0.60721    1.000
    Si3936   Si       0.66342    0.48632    0.56605    1.000
    Si3937   Si       0.65583    0.28591    0.65914    1.000
    Si3938   Si       0.66958    0.34964    0.70142    1.000
    N3939    N        0.67440    0.32592    0.66614    1.000
    Si3940   Si       0.66429    0.45604    0.63314    1.000
    N3941    N        0.66499    0.39527    0.69894    1.000
    N3942    N        0.68772    0.47101    0.73352    1.000
    N3943    N        0.68916    0.47837    0.66015    1.000
    Si3944   Si       0.68076    0.49573    0.69736    1.000
    Si3945   Si       0.64282    0.48140    0.74819    1.000
    N3946    N        0.67140    0.33156    0.77865    1.000
    Si3947   Si       0.66917    0.29270    0.79680    1.000
    Si3948   Si       0.68393    0.37335    0.78438    1.000
    N3949    N        0.64750    0.29220    0.83599    1.000
    Si3950   Si       0.68294    0.28977    0.86117    1.000
    N3951    N        0.69588    0.26101    0.78290    1.000
    N3952    N        0.64632    0.38721    0.80363    1.000
    Si3953   Si       0.65665    0.42451    0.82628    1.000
    N3954    N        0.65265    0.45380    0.78164    1.000
    N3955    N        0.66775    0.40196    0.86527    1.000
    Si3956   Si       0.69554    0.44704    0.77506    1.000
    N3957    N        0.67084    0.25960    0.98818    1.000
    N3958    N        0.68404    0.30804    0.89958    1.000
    N3959    N        0.68473    0.33264    0.98145    1.000
    Si3960   Si       0.64790    0.32826    0.91500    1.000
    Si3961   Si       0.65631    0.30038    0.98024    1.000
    N3962    N        0.66348    0.36888    0.92250    1.000
    Si3963   Si       0.64565    0.49246    0.91330    1.000
    Si3964   Si       0.69422    0.48884    0.98450    1.000
    Si3965   Si       0.64803    0.40540    0.90351    1.000
    N3966    N        0.65086    0.49155    0.98631    1.000
    N3967    N        0.65102    0.44988    0.90866    1.000
    N3968    N        0.66977    0.60674    0.07170    1.000
    N3969    N        0.66907    0.55209    0.03058    1.000
    Si3970   Si       0.67311    0.56144    0.07345    1.000
    Si3971   Si       0.64235    0.51895    0.01863    1.000
    N3972    N        0.64059    0.54641    0.09894    1.000
    Si3973   Si       0.68961    0.56874    0.99506    1.000
    Si3974   Si       0.64313    0.70046    0.02270    1.000
    N3975    N        0.68380    0.70878    0.03496    1.000
    N3976    N        0.65985    0.71095    0.10344    1.000
    Si3977   Si       0.68823    0.73222    0.07039    1.000
    Si3978   Si       0.65053    0.58356    0.23691    1.000
    N3979    N        0.66430    0.61298    0.20742    1.000
    Si3980   Si       0.68219    0.60024    0.16731    1.000
    N3981    N        0.67650    0.54734    0.22999    1.000
    Si3982   Si       0.67284    0.53098    0.18927    1.000
    N3983    N        0.64538    0.60176    0.14477    1.000
    N3984    N        0.64633    0.67989    0.18670    1.000
    Si3985   Si       0.66404    0.65523    0.21681    1.000
    N3986    N        0.67135    0.74453    0.21932    1.000
    N3987    N        0.64974    0.74963    0.16174    1.000
    Si3988   Si       0.66901    0.71710    0.18326    1.000
    N3989    N        0.66681    0.53298    0.29853    1.000
    N3990    N        0.65865    0.60114    0.27496    1.000
    Si3991   Si       0.67115    0.57547    0.30776    1.000
    Si3992   Si       0.68610    0.51862    0.33973    1.000
    Si3993   Si       0.64195    0.62594    0.30724    1.000
    N3994    N        0.65603    0.53457    0.36641    1.000
    Si3995   Si       0.69217    0.52186    0.26451    1.000
    N3996    N        0.63901    0.58957    0.33356    1.000
    N3997    N        0.64390    0.66920    0.25376    1.000
    N3998    N        0.67706    0.65501    0.31396    1.000
    Si3999   Si       0.66254    0.68695    0.29000    1.000
    Si4000   Si       0.64149    0.74915    0.32014    1.000
    Si4001   Si       0.67944    0.75069    0.26043    1.000
    N4002    N        0.68128    0.75358    0.33570    1.000
    N4003    N        0.69382    0.71848    0.28327    1.000
    Si4004   Si       0.67670    0.53546    0.48101    1.000
    N4005    N        0.68235    0.54881    0.43707    1.000
    Si4006   Si       0.66025    0.52371    0.40844    1.000
    Si4007   Si       0.66046    0.61346    0.43068    1.000
    N4008    N        0.64234    0.56001    0.48901    1.000
    N4009    N        0.65848    0.63073    0.47203    1.000
    Si4010   Si       0.67734    0.68460    0.41258    1.000
    N4011    N        0.65056    0.65152    0.40956    1.000
    Si4012   Si       0.69051    0.75422    0.37867    1.000
    N4013    N        0.66287    0.72311    0.39994    1.000
    Si4014   Si       0.67613    0.66953    0.48685    1.000
    N4015    N        0.69574    0.69003    0.45312    1.000
    N4016    N        0.65957    0.52743    0.55000    1.000
    N4017    N        0.67810    0.60135    0.52985    1.000
    N4018    N        0.64402    0.59590    0.61508    1.000
    Si4019   Si       0.63906    0.60053    0.50729    1.000
    Si4020   Si       0.69438    0.63587    0.55002    1.000
    N4021    N        0.65521    0.64942    0.57013    1.000
    Si4022   Si       0.66547    0.68371    0.59650    1.000
    Si4023   Si       0.67250    0.61894    0.63952    1.000
    Si4024   Si       0.67318    0.61737    0.72154    1.000
    N4025    N        0.65000    0.58185    0.73196    1.000
    Si4026   Si       0.66654    0.54233    0.73860    1.000
    N4027    N        0.64276    0.51161    0.71363    1.000
    N4028    N        0.66104    0.63005    0.68295    1.000
    Si4029   Si       0.67396    0.67518    0.67470    1.000
    N4030    N        0.66601    0.71776    0.67451    1.000
    N4031    N        0.67213    0.66109    0.63276    1.000
    Si4032   Si       0.63487    0.74577    0.68223    1.000
    Si4033   Si       0.68858    0.68515    0.74504    1.000
    Si4034   Si       0.67040    0.58166    0.85205    1.000
    N4035    N        0.64947    0.51969    0.77293    1.000
    N4036    N        0.65225    0.62154    0.86287    1.000
    Si4037   Si       0.68351    0.52353    0.79712    1.000
    N4038    N        0.69638    0.54123    0.83434    1.000
    Si4039   Si       0.66442    0.63427    0.82328    1.000
    N4040    N        0.68341    0.67377    0.82600    1.000
    Si4041   Si       0.66244    0.70676    0.84762    1.000
    N4042    N        0.64380    0.73120    0.81597    1.000
    N4043    N        0.66936    0.72198    0.74872    1.000
    N4044    N        0.66129    0.64991    0.74773    1.000
    N4045    N        0.69103    0.73219    0.87036    1.000
    Si4046   Si       0.63392    0.72536    0.77296    1.000
    N4047    N        0.64221    0.51060    0.87304    1.000
    Si4048   Si       0.68273    0.52329    0.87227    1.000
    N4049    N        0.68363    0.51214    0.92148    1.000
    N4050    N        0.68345    0.56624    0.88917    1.000
    N4051    N        0.67811    0.58145    0.95573    1.000
    Si4052   Si       0.64080    0.60477    0.94955    1.000
    Si4053   Si       0.69108    0.73718    0.91376    1.000
    N4054    N        0.65691    0.71283    0.92512    1.000
    N4055    N        0.64342    0.64242    0.92776    1.000
    Si4056   Si       0.65309    0.67702    0.95196    1.000
    N4057    N        0.68941    0.67187    0.97543    1.000
    Si4058   Si       0.65811    0.86584    0.07345    1.000
    N4059    N        0.67331    0.77248    0.06995    1.000
    N4060    N        0.66304    0.84786    0.03225    1.000
    Si4061   Si       0.63437    0.82155    0.01259    1.000
    Si4062   Si       0.64774    0.94239    0.09135    1.000
    N4063    N        0.67319    0.97893    0.08526    1.000
    N4064    N        0.66446    0.90842    0.06895    1.000
    N4065    N        0.68434    0.92291    0.00231    1.000
    Si4066   Si       0.65085    0.77649    0.19695    1.000
    N4067    N        0.65714    0.87392    0.17237    1.000
    N4068    N        0.68438    0.80178    0.18906    1.000
    Si4069   Si       0.69011    0.84514    0.17957    1.000
    N4070    N        0.65108    0.87538    0.24363    1.000
    N4071    N        0.69152    0.91703    0.21608    1.000
    N4072    N        0.64248    0.93185    0.13307    1.000
    Si4073   Si       0.65228    0.90144    0.20576    1.000
    Si4074   Si       0.63296    0.89077    0.13963    1.000
    Si4075   Si       0.66389    0.83979    0.33371    1.000
    N4076    N        0.64131    0.76484    0.27912    1.000
    N4077    N        0.66994    0.87996    0.31537    1.000
    Si4078   Si       0.66444    0.96730    0.28404    1.000
    N4079    N        0.68341    0.00513    0.30087    1.000
    N4080    N        0.64074    0.94904    0.31517    1.000
    N4081    N        0.67548    0.99149    0.36576    1.000
    N4082    N        0.64049    0.97814    0.24992    1.000
    Si4083   Si       0.63627    0.98167    0.34764    1.000
    Si4084   Si       0.63467    0.90594    0.31923    1.000
    N4085    N        0.67230    0.84817    0.37541    1.000
    Si4086   Si       0.64933    0.79709    0.43444    1.000
    N4087    N        0.66241    0.78772    0.39185    1.000
    N4088    N        0.68459    0.81933    0.44273    1.000
    N4089    N        0.69151    0.90545    0.40072    1.000
    Si4090   Si       0.65419    0.88548    0.39226    1.000
    N4091    N        0.64414    0.95069    0.43212    1.000
    N4092    N        0.69076    0.92302    0.47711    1.000
    Si4093   Si       0.68467    0.93407    0.43452    1.000
    Si4094   Si       0.69505    0.00105    0.40306    1.000
    Si4095   Si       0.65206    0.84763    0.59957    1.000
    N4096    N        0.68031    0.79720    0.52335    1.000
    N4097    N        0.65700    0.86896    0.51132    1.000
    Si4098   Si       0.68404    0.84133    0.53031    1.000
    N4099    N        0.66294    0.76979    0.58661    1.000
    N4100    N        0.68709    0.84299    0.57368    1.000
    Si4101   Si       0.64094    0.78256    0.51197    1.000
    N4102    N        0.65311    0.94123    0.53663    1.000
    Si4103   Si       0.65932    0.91090    0.50365    1.000
    N4104    N        0.68729    0.98990    0.56683    1.000
    Si4105   Si       0.68718    0.94406    0.56340    1.000
    N4106    N        0.64391    0.89146    0.60636    1.000
    Si4107   Si       0.64520    0.00076    0.58015    1.000
    N4108    N        0.69091    0.94049    0.60791    1.000
    Si4109   Si       0.66334    0.78309    0.62824    1.000
    N4110    N        0.64724    0.85649    0.69775    1.000
    N4111    N        0.65346    0.77910    0.70624    1.000
    N4112    N        0.66422    0.82601    0.63734    1.000
    Si4113   Si       0.68219    0.84928    0.66954    1.000
    Si4114   Si       0.68396    0.75944    0.73218    1.000
    Si4115   Si       0.64043    0.87022    0.74630    1.000
    Si4116   Si       0.65087    0.93290    0.62368    1.000
    N4117    N        0.64353    0.93054    0.66485    1.000
    Si4118   Si       0.65519    0.94625    0.70439    1.000
    N4119    N        0.69667    0.95141    0.71577    1.000
    N4120    N        0.67757    0.82754    0.81900    1.000
    N4121    N        0.68100    0.86251    0.75880    1.000
    Si4122   Si       0.63897    0.82598    0.84083    1.000
    Si4123   Si       0.69376    0.86577    0.80111    1.000
    N4124    N        0.69168    0.79090    0.75942    1.000
    N4125    N        0.63622    0.94313    0.84120    1.000
    N4126    N        0.66234    0.88899    0.81842    1.000
    Si4127   Si       0.66732    0.96014    0.81584    1.000
    N4128    N        0.66325    0.94613    0.77591    1.000
    N4129    N        0.66905    0.00310    0.81272    1.000
    N4130    N        0.65987    0.83990    0.93553    1.000
    Si4131   Si       0.67883    0.81266    0.90684    1.000
    Si4132   Si       0.68448    0.87506    0.91936    1.000
    N4133    N        0.64481    0.80912    0.88000    1.000
    N4134    N        0.68970    0.77736    0.93068    1.000
    N4135    N        0.65790    0.79254    0.99063    1.000
    N4136    N        0.67623    0.97889    0.88784    1.000
    N4137    N        0.66015    0.97540    0.97069    1.000
    Si4138   Si       0.64875    0.94370    0.88348    1.000
    Si4139   Si       0.64721    0.93598    0.98579    1.000
    N4140    N        0.66755    0.90868    0.89781    1.000
    N4141    N        0.72448    0.08912    0.05214    1.000
    N4142    N        0.72323    0.02246    0.07085    1.000
    Si4143   Si       0.71986    0.12555    0.02205    1.000
    N4144    N        0.72563    0.12611    0.11674    1.000
    Si4145   Si       0.74750    0.10681    0.08427    1.000
    Si4146   Si       0.69690    0.05608    0.05590    1.000
    N4147    N        0.72682    0.22994    0.00992    1.000
    Si4148   Si       0.73707    0.22196    0.10270    1.000
    N4149    N        0.72036    0.19489    0.07380    1.000
    Si4150   Si       0.71519    0.19256    0.02943    1.000
    Si4151   Si       0.70533    0.15812    0.09350    1.000
    N4152    N        0.74581    0.16567    0.01253    1.000
    N4153    N        0.71294    0.25833    0.10326    1.000
    Si4154   Si       0.71943    0.11739    0.15860    1.000
    Si4155   Si       0.71927    0.01465    0.21385    1.000
    N4156    N        0.75294    0.02397    0.15004    1.000
    Si4157   Si       0.71113    0.17641    0.22395    1.000
    N4158    N        0.74367    0.15716    0.24501    1.000
    Si4159   Si       0.70903    0.25390    0.20925    1.000
    N4160    N        0.73312    0.20251    0.14158    1.000
    N4161    N        0.72555    0.21295    0.20638    1.000
    N4162    N        0.70125    0.15205    0.18395    1.000
    Si4163   Si       0.72211    0.07653    0.30479    1.000
    N4164    N        0.73855    0.09643    0.33969    1.000
    N4165    N        0.70622    0.10770    0.27837    1.000
    Si4166   Si       0.70618    0.01464    0.34334    1.000
    Si4167   Si       0.73914    0.13721    0.28264    1.000
    N4168    N        0.72230    0.16971    0.31082    1.000
    Si4169   Si       0.72104    0.17294    0.35378    1.000
    N4170    N        0.71339    0.23783    0.29490    1.000
    N4171    N        0.71562    0.21134    0.37017    1.000
    Si4172   Si       0.71217    0.07402    0.37020    1.000
    N4173    N        0.71933    0.03231    0.38448    1.000
    Si4174   Si       0.73795    0.11973    0.43944    1.000
    N4175    N        0.72968    0.10407    0.39951    1.000
    N4176    N        0.74290    0.08788    0.46958    1.000
    Si4177   Si       0.71324    0.05473    0.46834    1.000
    N4178    N        0.73906    0.02680    0.44914    1.000
    N4179    N        0.70702    0.20497    0.43369    1.000
    N4180    N        0.73290    0.24903    0.47144    1.000
    Si4181   Si       0.74724    0.21779    0.44479    1.000
    Si4182   Si       0.74122    0.24674    0.38045    1.000
    N4183    N        0.69651    0.13798    0.44610    1.000
    Si4184   Si       0.73548    0.07496    0.56846    1.000
    N4185    N        0.74542    0.03298    0.55998    1.000
    Si4186   Si       0.73396    0.11301    0.50475    1.000
    N4187    N        0.74782    0.10746    0.59457    1.000
    N4188    N        0.69644    0.03746    0.50871    1.000
    Si4189   Si       0.71504    0.00975    0.53683    1.000
    N4190    N        0.75567    0.09274    0.53410    1.000
    Si4191   Si       0.73051    0.18401    0.52045    1.000
    N4192    N        0.72316    0.16491    0.55856    1.000
    N4193    N        0.74613    0.25342    0.59308    1.000
    Si4194   Si       0.69671    0.18918    0.58573    1.000
    N4195    N        0.75159    0.21989    0.53369    1.000
    N4196    N        0.73500    0.07245    0.65806    1.000
    Si4197   Si       0.74989    0.11034    0.63730    1.000
    N4198    N        0.69679    0.01718    0.62901    1.000
    Si4199   Si       0.69609    0.05256    0.65115    1.000
    N4200    N        0.71993    0.14014    0.64382    1.000
    N4201    N        0.71403    0.20571    0.62203    1.000
    N4202    N        0.69645    0.18746    0.68631    1.000
    Si4203   Si       0.72176    0.25127    0.63305    1.000
    Si4204   Si       0.70113    0.25235    0.74158    1.000
    Si4205   Si       0.72545    0.18236    0.65538    1.000
    Si4206   Si       0.71260    0.18214    0.72689    1.000
    N4207    N        0.73100    0.22125    0.73683    1.000
    N4208    N        0.75377    0.25455    0.66487    1.000
    N4209    N        0.73404    0.10043    0.76984    1.000
    N4210    N        0.72323    0.01710    0.85020    1.000
    Si4211   Si       0.74857    0.01678    0.74777    1.000
    N4212    N        0.72721    0.20897    0.81321    1.000
    Si4213   Si       0.69792    0.17894    0.80209    1.000
    Si4214   Si       0.72031    0.25706    0.82011    1.000
    N4215    N        0.69762    0.25015    0.85720    1.000
    N4216    N        0.69774    0.13689    0.81651    1.000
    Si4217   Si       0.74373    0.09797    0.87145    1.000
    Si4218   Si       0.69921    0.12823    0.94544    1.000
    N4219    N        0.70333    0.10821    0.87982    1.000
    Si4220   Si       0.73056    0.05365    0.93780    1.000
    N4221    N        0.70520    0.01816    0.93593    1.000
    N4222    N        0.74803    0.06123    0.89644    1.000
    N4223    N        0.69780    0.08533    0.94069    1.000
    N4224    N        0.74792    0.10869    0.98794    1.000
    Si4225   Si       0.74642    0.16664    0.89734    1.000
    N4226    N        0.71128    0.17452    0.87345    1.000
    N4227    N        0.73358    0.15420    0.93817    1.000
    Si4228   Si       0.71759    0.29006    0.07402    1.000
    N4229    N        0.74414    0.35326    0.01633    1.000
    N4230    N        0.71395    0.29722    0.02979    1.000
    Si4231   Si       0.70313    0.33949    0.01939    1.000
    Si4232   Si       0.72206    0.34904    0.11763    1.000
    N4233    N        0.70475    0.38608    0.11297    1.000
    N4234    N        0.73604    0.40911    0.05852    1.000
    N4235    N        0.70416    0.46583    0.02194    1.000
    Si4236   Si       0.74019    0.45068    0.03984    1.000
    Si4237   Si       0.74774    0.46253    0.11389    1.000
    Si4238   Si       0.69632    0.39733    0.07139    1.000
    Si4239   Si       0.75032    0.30110    0.16778    1.000
    N4240    N        0.73283    0.27621    0.23976    1.000
    N4241    N        0.71828    0.27096    0.17080    1.000
    N4242    N        0.72179    0.33269    0.15823    1.000
    N4243    N        0.73117    0.34636    0.24079    1.000
    N4244    N        0.73031    0.44223    0.14989    1.000
    N4245    N        0.72915    0.46931    0.21294    1.000
    N4246    N        0.73948    0.41408    0.24944    1.000
    Si4247   Si       0.73458    0.38339    0.21608    1.000
    Si4248   Si       0.70750    0.44766    0.24253    1.000
    N4249    N        0.73566    0.50041    0.13498    1.000
    Si4250   Si       0.72243    0.47927    0.17123    1.000
    Si4251   Si       0.70866    0.34512    0.34747    1.000
    N4252    N        0.71537    0.30599    0.32569    1.000
    Si4253   Si       0.72063    0.27810    0.28521    1.000
    N4254    N        0.73850    0.37725    0.33774    1.000
    Si4255   Si       0.72078    0.41593    0.33834    1.000
    N4256    N        0.69491    0.47831    0.27423    1.000
    Si4257   Si       0.69836    0.35277    0.47082    1.000
    Si4258   Si       0.70880    0.28441    0.48508    1.000
    N4259    N        0.70893    0.26742    0.40078    1.000
    N4260    N        0.71001    0.34125    0.38988    1.000
    N4261    N        0.70056    0.31454    0.45501    1.000
    Si4262   Si       0.69192    0.30588    0.41193    1.000
    Si4263   Si       0.69589    0.38073    0.40196    1.000
    Si4264   Si       0.72836    0.41822    0.46815    1.000
    N4265    N        0.70872    0.38696    0.44484    1.000
    Si4266   Si       0.70902    0.49090    0.44277    1.000
    N4267    N        0.73189    0.45364    0.44284    1.000
    N4268    N        0.70196    0.41845    0.37932    1.000
    N4269    N        0.73876    0.33257    0.57525    1.000
    N4270    N        0.74257    0.29190    0.51524    1.000
    N4271    N        0.72547    0.35814    0.50573    1.000
    Si4272   Si       0.74845    0.36975    0.59200    1.000
    Si4273   Si       0.74917    0.32991    0.53400    1.000
    Si4274   Si       0.70743    0.39305    0.53163    1.000
    N4275    N        0.73034    0.40328    0.56814    1.000
    Si4276   Si       0.71799    0.43900    0.59006    1.000
    N4277    N        0.70595    0.47943    0.57343    1.000
    N4278    N        0.70553    0.42687    0.50539    1.000
    N4279    N        0.72322    0.30117    0.63156    1.000
    N4280    N        0.71425    0.28791    0.72182    1.000
    Si4281   Si       0.73713    0.32337    0.72972    1.000
    N4282    N        0.73206    0.37156    0.63356    1.000
    N4283    N        0.70903    0.35582    0.71958    1.000
    Si4284   Si       0.75447    0.29937    0.66360    1.000
    Si4285   Si       0.70055    0.33793    0.63309    1.000
    N4286    N        0.73654    0.41785    0.69371    1.000
    Si4287   Si       0.75130    0.40663    0.65493    1.000
    Si4288   Si       0.70527    0.39937    0.71638    1.000
    Si4289   Si       0.73235    0.48013    0.64994    1.000
    N4290    N        0.73972    0.44140    0.62782    1.000
    Si4291   Si       0.72452    0.49603    0.74556    1.000
    Si4292   Si       0.73613    0.33294    0.81010    1.000
    N4293    N        0.71542    0.37053    0.81384    1.000
    N4294    N        0.70964    0.30305    0.82663    1.000
    N4295    N        0.75247    0.32666    0.77076    1.000
    N4296    N        0.70007    0.43435    0.82056    1.000
    Si4297   Si       0.70786    0.39768    0.84632    1.000
    Si4298   Si       0.72205    0.47076    0.82977    1.000
    N4299    N        0.71153    0.48899    0.79004    1.000
    N4300    N        0.75123    0.46025    0.75000    1.000
    N4301    N        0.70778    0.48620    0.86772    1.000
    N4302    N        0.69697    0.40723    0.75925    1.000
    Si4303   Si       0.69186    0.36641    0.95531    1.000
    N4304    N        0.72762    0.35055    0.93612    1.000
    N4305    N        0.72815    0.28060    0.95391    1.000
    Si4306   Si       0.72231    0.30901    0.92053    1.000
    Si4307   Si       0.71461    0.26812    0.99481    1.000
    Si4308   Si       0.75094    0.38087    0.91626    1.000
    N4309    N        0.70140    0.40151    0.97891    1.000
    N4310    N        0.73888    0.38530    0.87490    1.000
    Si4311   Si       0.71048    0.48007    0.91174    1.000
    N4312    N        0.71334    0.46371    0.95451    1.000
    Si4313   Si       0.73232    0.42815    0.97082    1.000
    N4314    N        0.74185    0.60462    0.07066    1.000
    N4315    N        0.71247    0.55104    0.09254    1.000
    Si4316   Si       0.74158    0.61686    0.02861    1.000
    N4317    N        0.72694    0.58293    0.00769    1.000
    Si4318   Si       0.74728    0.56192    0.06984    1.000
    Si4319   Si       0.74491    0.54358    0.99755    1.000
    Si4320   Si       0.70652    0.63020    0.07664    1.000
    Si4321   Si       0.70961    0.68307    0.01255    1.000
    N4322    N        0.71036    0.65576    0.11116    1.000
    N4323    N        0.71404    0.64796    0.03662    1.000
    N4324    N        0.72185    0.72369    0.09562    1.000
    N4325    N        0.74713    0.69816    0.00161    1.000
    Si4326   Si       0.69961    0.69647    0.11960    1.000
    Si4327   Si       0.72283    0.54357    0.13407    1.000
    Si4328   Si       0.72934    0.62248    0.20921    1.000
    N4329    N        0.71635    0.62525    0.16929    1.000
    N4330    N        0.75008    0.58800    0.22324    1.000
    N4331    N        0.69267    0.55777    0.16143    1.000
    N4332    N        0.70564    0.70862    0.16106    1.000
    Si4333   Si       0.74117    0.64816    0.14130    1.000
    N4334    N        0.70569    0.65826    0.22788    1.000
    Si4335   Si       0.74767    0.71743    0.16929    1.000
    N4336    N        0.72394    0.53732    0.33610    1.000
    Si4337   Si       0.73718    0.58085    0.34993    1.000
    N4338    N        0.73260    0.53742    0.26879    1.000
    N4339    N        0.74337    0.62553    0.35770    1.000
    N4340    N        0.70427    0.59503    0.32404    1.000
    Si4341   Si       0.75609    0.53851    0.30560    1.000
    N4342    N        0.73920    0.63721    0.28584    1.000
    Si4343   Si       0.71572    0.63713    0.32247    1.000
    N4344    N        0.73865    0.69014    0.32872    1.000
    Si4345   Si       0.71795    0.73304    0.32055    1.000
    Si4346   Si       0.74161    0.66580    0.25042    1.000
    N4347    N        0.73096    0.73833    0.36696    1.000
    N4348    N        0.74971    0.76095    0.30730    1.000
    N4349    N        0.73894    0.52285    0.44164    1.000
    Si4350   Si       0.72067    0.57088    0.42977    1.000
    N4351    N        0.74543    0.56575    0.39190    1.000
    N4352    N        0.70003    0.60766    0.41489    1.000
    Si4353   Si       0.74898    0.54625    0.47980    1.000
    N4354    N        0.75228    0.58314    0.45881    1.000
    Si4355   Si       0.72999    0.71435    0.45605    1.000
    Si4356   Si       0.72719    0.63477    0.39853    1.000
    N4357    N        0.72055    0.75728    0.46825    1.000
    Si4358   Si       0.74400    0.69808    0.37454    1.000
    N4359    N        0.71122    0.67272    0.38907    1.000
    N4360    N        0.71106    0.55579    0.57872    1.000
    Si4361   Si       0.72789    0.59004    0.60299    1.000
    N4362    N        0.72787    0.62443    0.57690    1.000
    Si4363   Si       0.72933    0.51672    0.58136    1.000
    N4364    N        0.71083    0.54944    0.50403    1.000
    Si4365   Si       0.68962    0.55925    0.54118    1.000
    Si4366   Si       0.71923    0.70030    0.54725    1.000
    N4367    N        0.72374    0.74436    0.54100    1.000
    N4368    N        0.70391    0.70141    0.58854    1.000
    N4369    N        0.70058    0.66904    0.52305    1.000
    Si4370   Si       0.74317    0.75247    0.50348    1.000
    Si4371   Si       0.73908    0.70268    0.61377    1.000
    N4372    N        0.75416    0.74201    0.60907    1.000
    Si4373   Si       0.72858    0.56091    0.72953    1.000
    N4374    N        0.71367    0.60121    0.71792    1.000
    N4375    N        0.71276    0.60247    0.64191    1.000
    Si4376   Si       0.73518    0.60125    0.67749    1.000
    N4377    N        0.70228    0.52950    0.71440    1.000
    N4378    N        0.74218    0.51324    0.62254    1.000
    N4379    N        0.72097    0.75189    0.70887    1.000
    Si4380   Si       0.74236    0.67732    0.68923    1.000
    N4381    N        0.72993    0.70448    0.65692    1.000
    N4382    N        0.70321    0.67205    0.70577    1.000
    Si4383   Si       0.70611    0.73868    0.67118    1.000
    Si4384   Si       0.72305    0.56863    0.81253    1.000
    Si4385   Si       0.72807    0.62387    0.85634    1.000
    N4386    N        0.70463    0.55611    0.77177    1.000
    N4387    N        0.69957    0.60381    0.82878    1.000
    N4388    N        0.72579    0.68471    0.76903    1.000
    Si4389   Si       0.72348    0.68181    0.81301    1.000
    Si4390   Si       0.72746    0.74461    0.85229    1.000
    N4391    N        0.74485    0.71841    0.82418    1.000
    N4392    N        0.74777    0.65057    0.82867    1.000
    Si4393   Si       0.69576    0.55382    0.92834    1.000
    N4394    N        0.73862    0.56322    0.92759    1.000
    N4395    N        0.70843    0.52875    0.98300    1.000
    Si4396   Si       0.75341    0.59725    0.90382    1.000
    N4397    N        0.73222    0.63509    0.89848    1.000
    Si4398   Si       0.74239    0.72799    0.96840    1.000
    N4399    N        0.72883    0.71548    0.92805    1.000
    Si4400   Si       0.74380    0.67147    0.92082    1.000
    N4401    N        0.72460    0.81144    0.04020    1.000
    N4402    N        0.73762    0.79138    0.10284    1.000
    Si4403   Si       0.70346    0.84332    0.01911    1.000
    Si4404   Si       0.70400    0.80268    0.07879    1.000
    Si4405   Si       0.72384    0.86097    0.11527    1.000
    N4406    N        0.72325    0.88188    0.03282    1.000
    Si4407   Si       0.75039    0.78191    0.02317    1.000
    N4408    N        0.69127    0.84261    0.09402    1.000
    Si4409   Si       0.71612    0.97954    0.08160    1.000
    N4410    N        0.72413    0.94869    0.05315    1.000
    N4411    N        0.71882    0.90353    0.11728    1.000
    Si4412   Si       0.74974    0.96039    0.02221    1.000
    Si4413   Si       0.69751    0.91539    0.04174    1.000
    N4414    N        0.73752    0.96874    0.11798    1.000
    N4415    N        0.73160    0.99158    0.99765    1.000
    N4416    N        0.75401    0.80200    0.20489    1.000
    Si4417   Si       0.71462    0.80598    0.22089    1.000
    N4418    N        0.72652    0.84870    0.15741    1.000
    N4419    N        0.70910    0.84896    0.21990    1.000
    Si4420   Si       0.69443    0.88059    0.24498    1.000
    Si4421   Si       0.75222    0.92865    0.12854    1.000
    Si4422   Si       0.72176    0.99518    0.14842    1.000
    Si4423   Si       0.72591    0.93779    0.20155    1.000
    N4424    N        0.71905    0.97851    0.18815    1.000
    Si4425   Si       0.72818    0.79849    0.29607    1.000
    Si4426   Si       0.71134    0.86971    0.31518    1.000
    N4427    N        0.70541    0.78609    0.25744    1.000
    N4428    N        0.70344    0.82646    0.31960    1.000
    N4429    N        0.72380    0.88293    0.27596    1.000
    N4430    N        0.74060    0.88370    0.34422    1.000
    N4431    N        0.70210    0.94739    0.28137    1.000
    Si4432   Si       0.73747    0.92295    0.27267    1.000
    Si4433   Si       0.72167    0.98509    0.29040    1.000
    N4434    N        0.74218    0.99687    0.32682    1.000
    N4435    N        0.73398    0.00191    0.25290    1.000
    N4436    N        0.73531    0.85034    0.40133    1.000
    Si4437   Si       0.72014    0.79502    0.44802    1.000
    N4438    N        0.72292    0.78653    0.40533    1.000
    Si4439   Si       0.69853    0.82259    0.39888    1.000
    N4440    N        0.75233    0.82233    0.45771    1.000
    Si4441   Si       0.73062    0.89043    0.38552    1.000
    N4442    N        0.71136    0.96775    0.42499    1.000
    N4443    N        0.72896    0.79277    0.58158    1.000
    Si4444   Si       0.72705    0.83957    0.58665    1.000
    N4445    N        0.72354    0.85057    0.51672    1.000
    Si4446   Si       0.69444    0.77477    0.55873    1.000
    Si4447   Si       0.74452    0.88702    0.53242    1.000
    N4448    N        0.75481    0.86764    0.56955    1.000
    N4449    N        0.73318    0.98099    0.50965    1.000
    N4450    N        0.71365    0.91789    0.54108    1.000
    Si4451   Si       0.72521    0.93911    0.50389    1.000
    Si4452   Si       0.70795    0.98346    0.60838    1.000
    N4453    N        0.75092    0.98327    0.60481    1.000
    N4454    N        0.73958    0.83071    0.62721    1.000
    N4455    N        0.71059    0.83458    0.69924    1.000
    N4456    N        0.70294    0.77107    0.64351    1.000
    Si4457   Si       0.73974    0.78207    0.62515    1.000
    Si4458   Si       0.70842    0.83121    0.74391    1.000
    Si4459   Si       0.75070    0.81944    0.68344    1.000
    Si4460   Si       0.71809    0.91994    0.63734    1.000
    Si4461   Si       0.73769    0.94889    0.70051    1.000
    N4462    N        0.73741    0.95102    0.65877    1.000
    N4463    N        0.69683    0.88717    0.65402    1.000
    N4464    N        0.73209    0.83382    0.78215    1.000
    N4465    N        0.72631    0.77516    0.82192    1.000
    Si4466   Si       0.70506    0.80111    0.79808    1.000
    N4467    N        0.73108    0.88512    0.81621    1.000
    Si4468   Si       0.69989    0.96279    0.75692    1.000
    Si4469   Si       0.73593    0.92752    0.81297    1.000
    N4470    N        0.73605    0.94330    0.77238    1.000
    N4471    N        0.70630    0.95140    0.83429    1.000
    N4472    N        0.70761    0.00691    0.75865    1.000
    Si4473   Si       0.71397    0.97826    0.86766    1.000
    N4474    N        0.70212    0.84781    0.89170    1.000
    N4475    N        0.71565    0.82667    0.97601    1.000
    Si4476   Si       0.74359    0.85233    0.95613    1.000
    Si4477   Si       0.74448    0.85615    0.88361    1.000
    N4478    N        0.72554    0.76054    0.99109    1.000
    Si4479   Si       0.69529    0.78876    0.97284    1.000
    Si4480   Si       0.73792    0.93151    0.91649    1.000
    Si4481   Si       0.71990    0.91830    0.97610    1.000
    N4482    N        0.74825    0.96384    0.88665    1.000
    Si4483   Si       0.70374    0.98700    0.96404    1.000
    N4484    N        0.71562    0.88671    0.94770    1.000
    N4485    N        0.71521    0.94919    0.94652    1.000
    N4486    N        0.77800    0.04575    0.02917    1.000
    N4487    N        0.77293    0.07480    0.09804    1.000
    Si4488   Si       0.76465    0.04092    0.07076    1.000
    N4489    N        0.78895    0.01308    0.09227    1.000
    N4490    N        0.77040    0.13961    0.06783    1.000
    Si4491   Si       0.76992    0.23290    0.00430    1.000
    N4492    N        0.78817    0.21145    0.03631    1.000
    N4493    N        0.77851    0.23155    0.10103    1.000
    Si4494   Si       0.78383    0.16786    0.03911    1.000
    Si4495   Si       0.81009    0.22941    0.06938    1.000
    Si4496   Si       0.80880    0.08062    0.12452    1.000
    N4497    N        0.80900    0.04937    0.15640    1.000
    N4498    N        0.80386    0.12201    0.21775    1.000
    Si4499   Si       0.76604    0.05719    0.17539    1.000
    Si4500   Si       0.79062    0.12657    0.17706    1.000
    N4501    N        0.75765    0.09933    0.16990    1.000
    Si4502   Si       0.79250    0.01149    0.13514    1.000
    N4503    N        0.75586    0.03977    0.21270    1.000
    Si4504   Si       0.79639    0.25202    0.13624    1.000
    Si4505   Si       0.75761    0.20435    0.17734    1.000
    N4506    N        0.78785    0.23473    0.17580    1.000
    N4507    N        0.77635    0.16782    0.18580    1.000
    Si4508   Si       0.78444    0.15891    0.23076    1.000
    N4509    N        0.77967    0.11943    0.28794    1.000
    Si4510   Si       0.79259    0.07756    0.29157    1.000
    Si4511   Si       0.76847    0.03002    0.25522    1.000
    N4512    N        0.78161    0.04018    0.36973    1.000
    Si4513   Si       0.81327    0.06947    0.36649    1.000
    Si4514   Si       0.75980    0.11783    0.37034    1.000
    N4515    N        0.75509    0.05715    0.28533    1.000
    Si4516   Si       0.80488    0.17489    0.36119    1.000
    N4517    N        0.76456    0.16138    0.36318    1.000
    N4518    N        0.80987    0.17736    0.26486    1.000
    N4519    N        0.81114    0.25259    0.24995    1.000
    N4520    N        0.81162    0.21787    0.36177    1.000
    N4521    N        0.78747    0.02695    0.49414    1.000
    N4522    N        0.79976    0.10827    0.38141    1.000
    N4523    N        0.79573    0.05133    0.43341    1.000
    Si4524   Si       0.78031    0.06330    0.47274    1.000
    Si4525   Si       0.76064    0.03021    0.40851    1.000
    N4526    N        0.80678    0.09396    0.49247    1.000
    Si4527   Si       0.81166    0.13300    0.41617    1.000
    Si4528   Si       0.78755    0.16176    0.47660    1.000
    N4529    N        0.77668    0.13973    0.44024    1.000
    Si4530   Si       0.80801    0.21611    0.40717    1.000
    N4531    N        0.78438    0.20390    0.46796    1.000
    N4532    N        0.76760    0.22944    0.40893    1.000
    Si4533   Si       0.79863    0.09590    0.53635    1.000
    N4534    N        0.80300    0.02995    0.60806    1.000
    N4535    N        0.80387    0.12981    0.56152    1.000
    Si4536   Si       0.77541    0.00964    0.58106    1.000
    N4537    N        0.75265    0.15046    0.50096    1.000
    Si4538   Si       0.76275    0.14438    0.57316    1.000
    N4539    N        0.77465    0.18179    0.59370    1.000
    Si4540   Si       0.76966    0.22194    0.57427    1.000
    Si4541   Si       0.76126    0.25105    0.50410    1.000
    N4542    N        0.80352    0.25938    0.50295    1.000
    N4543    N        0.76144    0.03694    0.71259    1.000
    N4544    N        0.80256    0.06246    0.66709    1.000
    N4545    N        0.76930    0.10779    0.70758    1.000
    Si4546   Si       0.76434    0.07048    0.68728    1.000
    N4547    N        0.78861    0.12626    0.64918    1.000
    N4548    N        0.79992    0.22156    0.71085    1.000
    N4549    N        0.81151    0.22456    0.63499    1.000
    Si4550   Si       0.78015    0.14719    0.69076    1.000
    Si4551   Si       0.77060    0.20462    0.73803    1.000
    Si4552   Si       0.79717    0.18342    0.63068    1.000
    Si4553   Si       0.79494    0.24286    0.67217    1.000
    N4554    N        0.76888    0.18301    0.66654    1.000
    N4555    N        0.75543    0.16365    0.72944    1.000
    N4556    N        0.79642    0.10353    0.77662    1.000
    N4557    N        0.76654    0.03855    0.78059    1.000
    Si4558   Si       0.76332    0.07850    0.79355    1.000
    Si4559   Si       0.75969    0.03929    0.86025    1.000
    Si4560   Si       0.76573    0.12272    0.74819    1.000
    Si4561   Si       0.79692    0.01289    0.80173    1.000
    N4562    N        0.75755    0.07707    0.83691    1.000
    N4563    N        0.78903    0.00872    0.84524    1.000
    N4564    N        0.78531    0.20707    0.77711    1.000
    Si4565   Si       0.76881    0.21709    0.81582    1.000
    N4566    N        0.79583    0.18779    0.83390    1.000
    N4567    N        0.76410    0.25897    0.82941    1.000
    Si4568   Si       0.80072    0.16393    0.86860    1.000
    N4569    N        0.76433    0.04625    0.96711    1.000
    Si4570   Si       0.77495    0.07591    0.99539    1.000
    N4571    N        0.76779    0.13196    0.87747    1.000
    Si4572   Si       0.77382    0.01113    0.99603    1.000
    Si4573   Si       0.75623    0.14878    0.97355    1.000
    Si4574   Si       0.80372    0.19942    0.93924    1.000
    N4575    N        0.78581    0.18811    0.90172    1.000
    N4576    N        0.78244    0.23079    0.96130    1.000
    N4577    N        0.79669    0.16232    0.96672    1.000
    Si4578   Si       0.78281    0.31860    0.10216    1.000
    Si4579   Si       0.76267    0.31069    0.02736    1.000
    N4580    N        0.76820    0.27833    0.00294    1.000
    N4581    N        0.76491    0.35798    0.10597    1.000
    N4582    N        0.80531    0.32698    0.02208    1.000
    N4583    N        0.75816    0.30339    0.07028    1.000
    N4584    N        0.79529    0.38591    0.05257    1.000
    N4585    N        0.77981    0.42814    0.11278    1.000
    Si4586   Si       0.76743    0.39643    0.08641    1.000
    N4587    N        0.76233    0.43288    0.00357    1.000
    N4588    N        0.80312    0.48785    0.01752    1.000
    Si4589   Si       0.78461    0.50456    0.05705    1.000
    Si4590   Si       0.75952    0.39186    0.02328    1.000
    N4591    N        0.75535    0.47568    0.07200    1.000
    Si4592   Si       0.80392    0.45073    0.99444    1.000
    Si4593   Si       0.76030    0.31230    0.24418    1.000
    N4594    N        0.77950    0.29299    0.13627    1.000
    N4595    N        0.77672    0.30930    0.20267    1.000
    N4596    N        0.81099    0.39713    0.23239    1.000
    Si4597   Si       0.77297    0.42613    0.15817    1.000
    N4598    N        0.76286    0.39404    0.18594    1.000
    Si4599   Si       0.80519    0.38334    0.19249    1.000
    N4600    N        0.78778    0.46184    0.17676    1.000
    Si4601   Si       0.77152    0.48030    0.21336    1.000
    N4602    N        0.78882    0.33592    0.33940    1.000
    Si4603   Si       0.75879    0.30524    0.32921    1.000
    N4604    N        0.76461    0.29782    0.28719    1.000
    N4605    N        0.76410    0.26817    0.35225    1.000
    Si4606   Si       0.78097    0.37900    0.33002    1.000
    N4607    N        0.80829    0.32731    0.25266    1.000
    Si4608   Si       0.80509    0.25829    0.35372    1.000
    Si4609   Si       0.81190    0.28980    0.27695    1.000
    N4610    N        0.78899    0.38973    0.28911    1.000
    N4611    N        0.77878    0.50332    0.31451    1.000
    Si4612   Si       0.78143    0.42017    0.25785    1.000
    Si4613   Si       0.77789    0.47468    0.34843    1.000
    Si4614   Si       0.79943    0.49577    0.27775    1.000
    N4615    N        0.78603    0.46332    0.25184    1.000
    N4616    N        0.75207    0.44403    0.33613    1.000
    Si4617   Si       0.76933    0.36835    0.49374    1.000
    N4618    N        0.78233    0.34143    0.46413    1.000
    N4619    N        0.76869    0.40882    0.48125    1.000
    N4620    N        0.79145    0.42069    0.41509    1.000
    Si4621   Si       0.80225    0.42191    0.45759    1.000
    N4622    N        0.80099    0.46559    0.45398    1.000
    Si4623   Si       0.77017    0.46017    0.42175    1.000
    N4624    N        0.76544    0.48882    0.38853    1.000
    Si4625   Si       0.80702    0.50615    0.46206    1.000
    N4626    N        0.79278    0.30009    0.56523    1.000
    N4627    N        0.78608    0.35443    0.53166    1.000
    N4628    N        0.79095    0.36902    0.59598    1.000
    Si4629   Si       0.80784    0.34057    0.56614    1.000
    Si4630   Si       0.75664    0.29609    0.59622    1.000
    N4631    N        0.78457    0.30458    0.63081    1.000
    N4632    N        0.76967    0.32166    0.69685    1.000
    Si4633   Si       0.81121    0.31007    0.70578    1.000
    N4634    N        0.80695    0.44222    0.71286    1.000
    N4635    N        0.79443    0.40519    0.65419    1.000
    Si4636   Si       0.76474    0.44884    0.71059    1.000
    N4637    N        0.75180    0.48502    0.68799    1.000
    N4638    N        0.77019    0.33420    0.83884    1.000
    Si4639   Si       0.79430    0.32252    0.77885    1.000
    Si4640   Si       0.77824    0.36970    0.86308    1.000
    Si4641   Si       0.77493    0.29351    0.85466    1.000
    N4642    N        0.80853    0.29349    0.74609    1.000
    N4643    N        0.76406    0.45824    0.82580    1.000
    N4644    N        0.79868    0.49843    0.78474    1.000
    N4645    N        0.79985    0.39804    0.84021    1.000
    Si4646   Si       0.77686    0.46111    0.78479    1.000
    Si4647   Si       0.79602    0.44153    0.85016    1.000
    N4648    N        0.80537    0.42885    0.77986    1.000
    N4649    N        0.74927    0.29657    0.89057    1.000
    N4650    N        0.80566    0.29888    0.94784    1.000
    N4651    N        0.79053    0.36701    0.90572    1.000
    Si4652   Si       0.77104    0.27268    0.95904    1.000
    Si4653   Si       0.77444    0.45722    0.92377    1.000
    N4654    N        0.75508    0.49448    0.91540    1.000
    N4655    N        0.80071    0.44309    0.89224    1.000
    N4656    N        0.80436    0.46749    0.95445    1.000
    N4657    N        0.75677    0.41726    0.93734    1.000
    N4658    N        0.78761    0.56196    0.08915    1.000
    N4659    N        0.78021    0.63087    0.01413    1.000
    Si4660   Si       0.78292    0.59315    0.11698    1.000
    N4661    N        0.75649    0.53498    0.03830    1.000
    Si4662   Si       0.81091    0.52540    0.99996    1.000
    N4663    N        0.78942    0.71080    0.09418    1.000
    Si4664   Si       0.79794    0.71801    0.05181    1.000
    N4665    N        0.76623    0.75389    0.05270    1.000
    Si4666   Si       0.75869    0.74656    0.10068    1.000
    Si4667   Si       0.79621    0.67531    0.11954    1.000
    N4668    N        0.80976    0.69057    0.02126    1.000
    N4669    N        0.77751    0.63488    0.12056    1.000
    Si4670   Si       0.79098    0.60786    0.22048    1.000
    Si4671   Si       0.78379    0.54588    0.16925    1.000
    N4672    N        0.76318    0.52056    0.20008    1.000
    N4673    N        0.75779    0.57072    0.14458    1.000
    Si4674   Si       0.75957    0.54697    0.23534    1.000
    N4675    N        0.80905    0.56892    0.19906    1.000
    N4676    N        0.76551    0.64716    0.21795    1.000
    Si4677   Si       0.79470    0.66828    0.18974    1.000
    N4678    N        0.76592    0.68061    0.15961    1.000
    N4679    N        0.76288    0.73471    0.20562    1.000
    Si4680   Si       0.78871    0.72170    0.23883    1.000
    N4681    N        0.76401    0.75125    0.14656    1.000
    N4682    N        0.77190    0.57740    0.31998    1.000
    N4683    N        0.80343    0.60753    0.26194    1.000
    Si4684   Si       0.77477    0.61222    0.29249    1.000
    N4685    N        0.79611    0.53162    0.25467    1.000
    Si4686   Si       0.78498    0.63968    0.35465    1.000
    Si4687   Si       0.77610    0.68459    0.30459    1.000
    N4688    N        0.76658    0.69639    0.26533    1.000
    N4689    N        0.79657    0.64563    0.31390    1.000
    Si4690   Si       0.79249    0.75668    0.30155    1.000
    N4691    N        0.80642    0.75567    0.25962    1.000
    N4692    N        0.80705    0.71516    0.31591    1.000
    N4693    N        0.80517    0.60640    0.37183    1.000
    Si4694   Si       0.77791    0.61856    0.45776    1.000
    Si4695   Si       0.76459    0.52856    0.40520    1.000
    N4696    N        0.80496    0.53032    0.42533    1.000
    N4697    N        0.78134    0.52244    0.49447    1.000
    N4698    N        0.81485    0.68913    0.45124    1.000
    N4699    N        0.75442    0.71449    0.41922    1.000
    N4700    N        0.78660    0.68071    0.37483    1.000
    Si4701   Si       0.79258    0.68709    0.49002    1.000
    N4702    N        0.76110    0.64429    0.42617    1.000
    N4703    N        0.80273    0.74337    0.38291    1.000
    Si4704   Si       0.78611    0.68223    0.41924    1.000
    N4705    N        0.75779    0.71421    0.48975    1.000
    Si4706   Si       0.79447    0.53701    0.53421    1.000
    Si4707   Si       0.77989    0.53318    0.60766    1.000
    N4708    N        0.78647    0.57932    0.52859    1.000
    Si4709   Si       0.80128    0.61828    0.52614    1.000
    N4710    N        0.76924    0.52196    0.56522    1.000
    N4711    N        0.76807    0.57386    0.61155    1.000
    N4712    N        0.80151    0.63523    0.56602    1.000
    N4713    N        0.79345    0.74899    0.55614    1.000
    Si4714   Si       0.80050    0.70620    0.56032    1.000
    N4715    N        0.76121    0.68769    0.55572    1.000
    Si4716   Si       0.76175    0.64883    0.57625    1.000
    N4717    N        0.76656    0.66823    0.61572    1.000
    N4718    N        0.78350    0.64481    0.49414    1.000
    Si4719   Si       0.75440    0.75778    0.56902    1.000
    N4720    N        0.75481    0.56377    0.69002    1.000
    Si4721   Si       0.77016    0.52325    0.69794    1.000
    N4722    N        0.75875    0.52736    0.74145    1.000
    N4723    N        0.77156    0.69490    0.71504    1.000
    N4724    N        0.76116    0.63734    0.67596    1.000
    N4725    N        0.81230    0.69176    0.66280    1.000
    Si4726   Si       0.80921    0.70877    0.70171    1.000
    N4727    N        0.80631    0.75398    0.70657    1.000
    Si4728   Si       0.79136    0.65618    0.65122    1.000
    Si4729   Si       0.78591    0.53844    0.77351    1.000
    Si4730   Si       0.78885    0.58293    0.83421    1.000
    N4731    N        0.76503    0.55901    0.80585    1.000
    N4732    N        0.80358    0.61339    0.80456    1.000
    N4733    N        0.75606    0.58986    0.86131    1.000
    Si4734   Si       0.76484    0.69966    0.75681    1.000
    Si4735   Si       0.79003    0.65260    0.81417    1.000
    N4736    N        0.79594    0.68113    0.78042    1.000
    N4737    N        0.76394    0.74505    0.76205    1.000
    Si4738   Si       0.76144    0.75514    0.80478    1.000
    Si4739   Si       0.76966    0.53242    0.93110    1.000
    N4740    N        0.77781    0.53378    0.97308    1.000
    N4741    N        0.79298    0.60022    0.91535    1.000
    Si4742   Si       0.80554    0.63341    0.93969    1.000
    N4743    N        0.81104    0.53560    0.91652    1.000
    Si4744   Si       0.77466    0.73193    0.90767    1.000
    N4745    N        0.77190    0.66048    0.95224    1.000
    N4746    N        0.77233    0.69138    0.89242    1.000
    N4747    N        0.78044    0.73930    0.95079    1.000
    Si4748   Si       0.78083    0.67201    0.99443    1.000
    N4749    N        0.79063    0.80073    0.01838    1.000
    N4750    N        0.76451    0.85481    0.10116    1.000
    N4751    N        0.80281    0.79121    0.09228    1.000
    Si4752   Si       0.77259    0.81398    0.11565    1.000
    Si4753   Si       0.79854    0.88032    0.09032    1.000
    Si4754   Si       0.80997    0.78091    0.05121    1.000
    Si4755   Si       0.76386    0.88690    0.01787    1.000
    N4756    N        0.79498    0.89010    0.04713    1.000
    N4757    N        0.78605    0.98162    0.03156    1.000
    N4758    N        0.79162    0.91758    0.11217    1.000
    N4759    N        0.75773    0.92823    0.99579    1.000
    Si4760   Si       0.76290    0.84128    0.18307    1.000
    N4761    N        0.79005    0.82195    0.15539    1.000
    N4762    N        0.78857    0.87125    0.20712    1.000
    Si4763   Si       0.77696    0.77121    0.18301    1.000
    N4764    N        0.75492    0.92871    0.23329    1.000
    Si4765   Si       0.78530    0.91485    0.20443    1.000
    N4766    N        0.81594    0.97660    0.14483    1.000
    N4767    N        0.75600    0.92468    0.17106    1.000
    Si4768   Si       0.80490    0.82748    0.29586    1.000
    N4769    N        0.76237    0.82314    0.28858    1.000
    N4770    N        0.80684    0.86871    0.30603    1.000
    Si4771   Si       0.77837    0.89542    0.32701    1.000
    N4772    N        0.76718    0.93212    0.30173    1.000
    Si4773   Si       0.79656    0.96366    0.29870    1.000
    N4774    N        0.79575    0.99849    0.27221    1.000
    Si4775   Si       0.77465    0.99935    0.35587    1.000
    N4776    N        0.80710    0.97852    0.33847    1.000
    N4777    N        0.80598    0.90957    0.35684    1.000
    Si4778   Si       0.77240    0.83396    0.41961    1.000
    N4779    N        0.78772    0.79564    0.40726    1.000
    N4780    N        0.80437    0.86241    0.41936    1.000
    Si4781   Si       0.76117    0.76012    0.39334    1.000
    Si4782   Si       0.75181    0.95509    0.42112    1.000
    N4783    N        0.76866    0.98631    0.39563    1.000
    N4784    N        0.76025    0.91491    0.40742    1.000
    Si4785   Si       0.75850    0.99850    0.47813    1.000
    Si4786   Si       0.80227    0.89979    0.40009    1.000
    N4787    N        0.77694    0.96691    0.45567    1.000
    N4788    N        0.76973    0.78690    0.50885    1.000
    N4789    N        0.78655    0.85929    0.50944    1.000
    N4790    N        0.80614    0.86880    0.61305    1.000
    Si4791   Si       0.80783    0.78058    0.52997    1.000
    Si4792   Si       0.75645    0.82791    0.49958    1.000
    Si4793   Si       0.78412    0.90163    0.59148    1.000
    Si4794   Si       0.79999    0.90338    0.51131    1.000
    N4795    N        0.80096    0.98919    0.55318    1.000
    N4796    N        0.79467    0.91741    0.55288    1.000
    N4797    N        0.80081    0.94201    0.60912    1.000
    N4798    N        0.75833    0.91347    0.49909    1.000
    Si4799   Si       0.76883    0.86181    0.63267    1.000
    N4800    N        0.76425    0.80517    0.72183    1.000
    N4801    N        0.76789    0.78611    0.66095    1.000
    N4802    N        0.77124    0.85676    0.67565    1.000
    Si4803   Si       0.80547    0.82120    0.72305    1.000
    Si4804   Si       0.76322    0.76139    0.72102    1.000
    Si4805   Si       0.80941    0.77548    0.66727    1.000
    N4806    N        0.80754    0.86307    0.72933    1.000
    N4807    N        0.75325    0.90103    0.62112    1.000
    Si4808   Si       0.77408    0.96299    0.63591    1.000
    N4809    N        0.76157    0.97889    0.72451    1.000
    N4810    N        0.76086    0.91745    0.71565    1.000
    N4811    N        0.79330    0.99117    0.66263    1.000
    Si4812   Si       0.79107    0.88774    0.69889    1.000
    Si4813   Si       0.79026    0.00629    0.70283    1.000
    N4814    N        0.78996    0.78273    0.81958    1.000
    N4815    N        0.79947    0.85036    0.79780    1.000
    Si4816   Si       0.78094    0.79624    0.86075    1.000
    Si4817   Si       0.75755    0.85034    0.81179    1.000
    N4818    N        0.75653    0.83225    0.85216    1.000
    N4819    N        0.77535    0.93993    0.82907    1.000
    N4820    N        0.79887    0.97702    0.77626    1.000
    Si4821   Si       0.78359    0.96760    0.86297    1.000
    Si4822   Si       0.77302    0.94489    0.75033    1.000
    N4823    N        0.80464    0.91565    0.76950    1.000
    Si4824   Si       0.80856    0.94256    0.80227    1.000
    N4825    N        0.76282    0.84061    0.92025    1.000
    N4826    N        0.77373    0.86095    0.98539    1.000
    Si4827   Si       0.80457    0.83229    0.99013    1.000
    Si4828   Si       0.80539    0.83428    0.91747    1.000
    N4829    N        0.76022    0.76070    0.87760    1.000
    N4830    N        0.79577    0.98480    0.96760    1.000
    N4831    N        0.74996    0.89898    0.88789    1.000
    Si4832   Si       0.79215    0.94274    0.97019    1.000
    Si4833   Si       0.79408    0.90769    0.89939    1.000
    N4834    N        0.77810    0.92666    0.93483    1.000
    N4835    N        0.84127    0.07354    0.09753    1.000
    N4836    N        0.84701    0.01567    0.05339    1.000
    Si4837   Si       0.86141    0.05085    0.06960    1.000
    Si4838   Si       0.86474    0.00831    0.01339    1.000
    N4839    N        0.85951    0.13762    0.08944    1.000
    N4840    N        0.86385    0.22064    0.01281    1.000
    N4841    N        0.84287    0.20260    0.08072    1.000
    Si4842   Si       0.85438    0.16695    0.05744    1.000
    N4843    N        0.82477    0.15278    0.02641    1.000
    Si4844   Si       0.86202    0.21395    0.11920    1.000
    N4845    N        0.85284    0.07948    0.20533    1.000
    Si4846   Si       0.84488    0.04378    0.18340    1.000
    Si4847   Si       0.82908    0.09272    0.23810    1.000
    N4848    N        0.83247    0.00931    0.20806    1.000
    N4849    N        0.81666    0.12079    0.14357    1.000
    N4850    N        0.84149    0.20845    0.21542    1.000
    N4851    N        0.83872    0.25141    0.12427    1.000
    Si4852   Si       0.85195    0.14304    0.13090    1.000
    Si4853   Si       0.86630    0.18715    0.18815    1.000
    Si4854   Si       0.81607    0.24394    0.20763    1.000
    N4855    N        0.85227    0.18211    0.14653    1.000
    N4856    N        0.84458    0.11481    0.27234    1.000
    Si4857   Si       0.83065    0.01848    0.25245    1.000
    N4858    N        0.81996    0.07252    0.32530    1.000
    N4859    N        0.81045    0.05847    0.25495    1.000
    N4860    N        0.83011    0.15396    0.33171    1.000
    Si4861   Si       0.83240    0.21512    0.25965    1.000
    N4862    N        0.86278    0.22433    0.28948    1.000
    Si4863   Si       0.81600    0.14362    0.29189    1.000
    Si4864   Si       0.86901    0.13882    0.34264    1.000
    N4865    N        0.86262    0.04635    0.46101    1.000
    N4866    N        0.85063    0.06181    0.38473    1.000
    Si4867   Si       0.84087    0.11536    0.47782    1.000
    N4868    N        0.84522    0.10852    0.43402    1.000
    Si4869   Si       0.83984    0.06269    0.42877    1.000
    N4870    N        0.81677    0.17350    0.40441    1.000
    N4871    N        0.83038    0.15713    0.48641    1.000
    N4872    N        0.85606    0.22116    0.49397    1.000
    Si4873   Si       0.81916    0.23101    0.47333    1.000
    N4874    N        0.83221    0.24211    0.43264    1.000
    Si4875   Si       0.86908    0.17975    0.48447    1.000
    Si4876   Si       0.83395    0.05510    0.58811    1.000
    N4877    N        0.83597    0.09152    0.60934    1.000
    N4878    N        0.86633    0.02703    0.58558    1.000
    N4879    N        0.81934    0.05917    0.54664    1.000
    Si4880   Si       0.83648    0.13151    0.59051    1.000
    Si4881   Si       0.81603    0.01993    0.52511    1.000
    N4882    N        0.81222    0.23500    0.57118    1.000
    Si4883   Si       0.83915    0.24233    0.60544    1.000
    Si4884   Si       0.87067    0.01071    0.69837    1.000
    N4885    N        0.85743    0.10239    0.67562    1.000
    N4886    N        0.85899    0.02529    0.65500    1.000
    Si4887   Si       0.82221    0.10059    0.65065    1.000
    Si4888   Si       0.85841    0.12754    0.70975    1.000
    Si4889   Si       0.81551    0.02471    0.64866    1.000
    N4890    N        0.86121    0.10352    0.74587    1.000
    Si4891   Si       0.86843    0.18651    0.63746    1.000
    N4892    N        0.85847    0.19487    0.67661    1.000
    N4893    N        0.83556    0.16510    0.61754    1.000
    Si4894   Si       0.83197    0.19375    0.71077    1.000
    N4895    N        0.82070    0.15060    0.71029    1.000
    N4896    N        0.86322    0.20309    0.74040    1.000
    Si4897   Si       0.83768    0.11340    0.77969    1.000
    N4898    N        0.83728    0.02350    0.78772    1.000
    N4899    N        0.85142    0.09276    0.81790    1.000
    Si4900   Si       0.86062    0.10856    0.85650    1.000
    Si4901   Si       0.86629    0.05119    0.80764    1.000
    N4902    N        0.83853    0.15680    0.78128    1.000
    N4903    N        0.83967    0.23216    0.80065    1.000
    Si4904   Si       0.81999    0.19193    0.79738    1.000
    N4905    N        0.84004    0.14708    0.86414    1.000
    N4906    N        0.87018    0.21178    0.86776    1.000
    Si4907   Si       0.86412    0.04307    0.88858    1.000
    N4908    N        0.83364    0.02754    0.91418    1.000
    N4909    N        0.83953    0.02885    0.98579    1.000
    N4910    N        0.86523    0.08775    0.89475    1.000
    Si4911   Si       0.84537    0.07104    0.99477    1.000
    N4912    N        0.81271    0.09572    0.99081    1.000
    Si4913   Si       0.87234    0.22991    0.90772    1.000
    Si4914   Si       0.82609    0.13730    0.98544    1.000
    N4915    N        0.84708    0.20138    0.93163    1.000
    N4916    N        0.85926    0.13427    0.95690    1.000
    Si4917   Si       0.84523    0.28353    0.09363    1.000
    N4918    N        0.85561    0.37009    0.04551    1.000
    N4919    N        0.82523    0.32121    0.08805    1.000
    Si4920   Si       0.82012    0.34790    0.05568    1.000
    N4921    N        0.83139    0.26403    0.05813    1.000
    Si4922   Si       0.86068    0.26092    0.02496    1.000
    N4923    N        0.85270    0.38792    0.10797    1.000
    N4924    N        0.83444    0.43959    0.07441    1.000
    Si4925   Si       0.83334    0.40872    0.04395    1.000
    Si4926   Si       0.84840    0.47717    0.09060    1.000
    N4927    N        0.83436    0.42157    0.00324    1.000
    Si4928   Si       0.82706    0.42370    0.11730    1.000
    N4929    N        0.82590    0.34948    0.17874    1.000
    N4930    N        0.83613    0.27821    0.19182    1.000
    Si4931   Si       0.85205    0.37215    0.14928    1.000
    Si4932   Si       0.82309    0.31716    0.20847    1.000
    N4933    N        0.86915    0.32698    0.21961    1.000
    N4934    N        0.81755    0.40672    0.15814    1.000
    N4935    N        0.83433    0.50299    0.20189    1.000
    Si4936   Si       0.82455    0.48488    0.16509    1.000
    N4937    N        0.84022    0.46427    0.13139    1.000
    N4938    N        0.85684    0.32878    0.34664    1.000
    N4939    N        0.85799    0.37265    0.28620    1.000
    N4940    N        0.82105    0.26836    0.31577    1.000
    Si4941   Si       0.81968    0.36939    0.26463    1.000
    Si4942   Si       0.86294    0.26346    0.30694    1.000
    N4943    N        0.86305    0.29873    0.28101    1.000
    Si4944   Si       0.87222    0.33493    0.30642    1.000
    Si4945   Si       0.81970    0.32942    0.36987    1.000
    Si4946   Si       0.84266    0.42953    0.34880    1.000
    N4947    N        0.82001    0.46632    0.34970    1.000
    Si4948   Si       0.83616    0.50301    0.33304    1.000
    N4949    N        0.81462    0.39756    0.35033    1.000
    N4950    N        0.81663    0.28859    0.38620    1.000
    N4951    N        0.81807    0.35587    0.40494    1.000
    Si4952   Si       0.84389    0.27975    0.41742    1.000
    Si4953   Si       0.82065    0.34850    0.44766    1.000
    N4954    N        0.84101    0.31040    0.44938    1.000
    Si4955   Si       0.81905    0.39637    0.39425    1.000
    N4956    N        0.86968    0.50651    0.40333    1.000
    N4957    N        0.82951    0.38911    0.46674    1.000
    N4958    N        0.85634    0.42175    0.39080    1.000
    N4959    N        0.85848    0.27612    0.54295    1.000
    N4960    N        0.85024    0.34166    0.57186    1.000
    N4961    N        0.84808    0.28494    0.60902    1.000
    Si4962   Si       0.87018    0.37986    0.57628    1.000
    Si4963   Si       0.86971    0.30222    0.57676    1.000
    N4964    N        0.86477    0.34454    0.50591    1.000
    Si4965   Si       0.81569    0.26862    0.54225    1.000
    Si4966   Si       0.85717    0.38645    0.50233    1.000
    N4967    N        0.85267    0.46590    0.58196    1.000
    N4968    N        0.85260    0.40480    0.60925    1.000
    N4969    N        0.86021    0.40531    0.54309    1.000
    Si4970   Si       0.85792    0.44805    0.61968    1.000
    Si4971   Si       0.86297    0.50800    0.51334    1.000
    Si4972   Si       0.81945    0.38211    0.62634    1.000
    N4973    N        0.84455    0.33993    0.70976    1.000
    N4974    N        0.83840    0.34562    0.64333    1.000
    Si4975   Si       0.86239    0.35765    0.67516    1.000
    Si4976   Si       0.82676    0.30410    0.64256    1.000
    N4977    N        0.81847    0.27989    0.67775    1.000
    Si4978   Si       0.84699    0.36377    0.74601    1.000
    N4979    N        0.85706    0.40159    0.67548    1.000
    Si4980   Si       0.83211    0.50865    0.65759    1.000
    N4981    N        0.83147    0.46424    0.65291    1.000
    N4982    N        0.85942    0.40480    0.73917    1.000
    Si4983   Si       0.82384    0.42775    0.67539    1.000
    Si4984   Si       0.84274    0.30451    0.84097    1.000
    Si4985   Si       0.83321    0.26981    0.77663    1.000
    N4986    N        0.81735    0.29894    0.80658    1.000
    N4987    N        0.86687    0.34036    0.83449    1.000
    N4988    N        0.81281    0.36000    0.77541    1.000
    Si4989   Si       0.86622    0.43422    0.83864    1.000
    N4990    N        0.86285    0.40156    0.81111    1.000
    N4991    N        0.85867    0.46997    0.77015    1.000
    N4992    N        0.83212    0.45998    0.83418    1.000
    Si4993   Si       0.83623    0.48812    0.80183    1.000
    Si4994   Si       0.81998    0.39505    0.80133    1.000
    Si4995   Si       0.83332    0.43941    0.74773    1.000
    N4996    N        0.81599    0.29277    0.87256    1.000
    Si4997   Si       0.82591    0.36502    0.92860    1.000
    N4998    N        0.83242    0.35697    0.97114    1.000
    Si4999   Si       0.82544    0.31697    0.98384    1.000
    Si5000   Si       0.82982    0.29557    0.91306    1.000
    N5001    N        0.85137    0.33476    0.91062    1.000
    N5002    N        0.86188    0.26867    0.92281    1.000
    N5003    N        0.85806    0.28975    0.99126    1.000
    Si5004   Si       0.82711    0.50297    0.93862    1.000
    N5005    N        0.85441    0.47927    0.91749    1.000
    N5006    N        0.84125    0.40550    0.93653    1.000
    Si5007   Si       0.84151    0.43924    0.90974    1.000
    Si5008   Si       0.85483    0.39443    0.97719    1.000
    N5009    N        0.87135    0.42558    0.88121    1.000
    N5010    N        0.84939    0.61143    0.03667    1.000
    Si5011   Si       0.85337    0.56768    0.04552    1.000
    Si5012   Si       0.82378    0.54356    0.10757    1.000
    N5013    N        0.85938    0.56633    0.08846    1.000
    Si5014   Si       0.81568    0.60756    0.01039    1.000
    N5015    N        0.81938    0.56393    0.01870    1.000
    N5016    N        0.82277    0.50909    0.07700    1.000
    N5017    N        0.83245    0.66033    0.08970    1.000
    Si5018   Si       0.84866    0.70520    0.01138    1.000
    N5019    N        0.83180    0.74458    0.04214    1.000
    Si5020   Si       0.86087    0.64726    0.05750    1.000
    Si5021   Si       0.82680    0.54059    0.22539    1.000
    Si5022   Si       0.83928    0.59910    0.17214    1.000
    N5023    N        0.81999    0.58109    0.13714    1.000
    N5024    N        0.86773    0.62341    0.14244    1.000
    N5025    N        0.80895    0.52144    0.14294    1.000
    N5026    N        0.81624    0.62980    0.19272    1.000
    Si5027   Si       0.85675    0.66340    0.12489    1.000
    N5028    N        0.81589    0.69815    0.21469    1.000
    N5029    N        0.82833    0.68267    0.14925    1.000
    Si5030   Si       0.84998    0.69716    0.18576    1.000
    N5031    N        0.87450    0.73141    0.17552    1.000
    N5032    N        0.84150    0.59174    0.31365    1.000
    N5033    N        0.82314    0.53663    0.35698    1.000
    Si5034   Si       0.83338    0.62772    0.29084    1.000
    Si5035   Si       0.81065    0.57500    0.34073    1.000
    N5036    N        0.84165    0.50372    0.29000    1.000
    N5037    N        0.86316    0.55162    0.24362    1.000
    Si5038   Si       0.85392    0.70481    0.31215    1.000
    N5039    N        0.85866    0.69963    0.35647    1.000
    N5040    N        0.86231    0.65553    0.31481    1.000
    Si5041   Si       0.81654    0.71017    0.36045    1.000
    N5042    N        0.86818    0.74929    0.30768    1.000
    Si5043   Si       0.83712    0.53516    0.39733    1.000
    Si5044   Si       0.83217    0.60912    0.40510    1.000
    N5045    N        0.81771    0.61120    0.44585    1.000
    Si5046   Si       0.85083    0.62145    0.47143    1.000
    N5047    N        0.85452    0.57244    0.40786    1.000
    N5048    N        0.84996    0.51313    0.47323    1.000
    N5049    N        0.84114    0.75495    0.44500    1.000
    N5050    N        0.85203    0.64475    0.39352    1.000
    Si5051   Si       0.85255    0.71143    0.45267    1.000
    N5052    N        0.87389    0.65723    0.46016    1.000
    N5053    N        0.83478    0.51908    0.54413    1.000
    N5054    N        0.84130    0.61986    0.51564    1.000
    N5055    N        0.81904    0.52194    0.61830    1.000
    Si5056   Si       0.84879    0.50938    0.58497    1.000
    Si5057   Si       0.83193    0.64889    0.59534    1.000
    Si5058   Si       0.85866    0.72363    0.52232    1.000
    N5059    N        0.82144    0.69913    0.52246    1.000
    N5060    N        0.82675    0.69276    0.59293    1.000
    N5061    N        0.86956    0.58902    0.62380    1.000
    N5062    N        0.83632    0.58599    0.68744    1.000
    Si5063   Si       0.85069    0.60994    0.65711    1.000
    Si5064   Si       0.83345    0.55339    0.71575    1.000
    N5065    N        0.81294    0.52198    0.69282    1.000
    N5066    N        0.83427    0.75393    0.63929    1.000
    N5067    N        0.82237    0.63339    0.63481    1.000
    Si5068   Si       0.83530    0.71175    0.63106    1.000
    N5069    N        0.84296    0.70001    0.72758    1.000
    Si5070   Si       0.83742    0.76158    0.73978    1.000
    Si5071   Si       0.83322    0.59971    0.77563    1.000
    N5072    N        0.82465    0.57253    0.85614    1.000
    Si5073   Si       0.86163    0.56107    0.83382    1.000
    N5074    N        0.85364    0.52488    0.81438    1.000
    N5075    N        0.81795    0.56446    0.75499    1.000
    N5076    N        0.86956    0.59152    0.80163    1.000
    N5077    N        0.84234    0.63468    0.75307    1.000
    N5078    N        0.85989    0.69801    0.86600    1.000
    Si5079   Si       0.85672    0.66345    0.84129    1.000
    Si5080   Si       0.83638    0.67519    0.76407    1.000
    N5081    N        0.86171    0.67920    0.79973    1.000
    N5082    N        0.84844    0.73977    0.77639    1.000
    N5083    N        0.81377    0.66202    0.84899    1.000
    N5084    N        0.83171    0.61498    0.97052    1.000
    Si5085   Si       0.82514    0.57324    0.90006    1.000
    N5086    N        0.84429    0.51989    0.97373    1.000
    N5087    N        0.86288    0.59093    0.91327    1.000
    Si5088   Si       0.86966    0.60579    0.95393    1.000
    N5089    N        0.83135    0.66066    0.91576    1.000
    Si5090   Si       0.86170    0.73311    0.89457    1.000
    N5091    N        0.81893    0.72961    0.90299    1.000
    Si5092   Si       0.82400    0.73628    0.94659    1.000
    N5093    N        0.84382    0.70414    0.96847    1.000
    Si5094   Si       0.86341    0.67501    0.94038    1.000
    Si5095   Si       0.81574    0.68691    0.88452    1.000
    Si5096   Si       0.83983    0.81313    0.09862    1.000
    N5097    N        0.83582    0.85646    0.10150    1.000
    N5098    N        0.83522    0.85290    0.01208    1.000
    N5099    N        0.85548    0.80285    0.05914    1.000
    Si5100   Si       0.86761    0.82864    0.02683    1.000
    Si5101   Si       0.83225    0.89608    0.02123    1.000
    N5102    N        0.83723    0.95827    0.07986    1.000
    N5103    N        0.86653    0.90660    0.04410    1.000
    Si5104   Si       0.87161    0.94799    0.05641    1.000
    N5105    N        0.86798    0.96676    0.01752    1.000
    Si5106   Si       0.81382    0.99137    0.06416    1.000
    Si5107   Si       0.82753    0.94249    0.11790    1.000
    Si5108   Si       0.82990    0.81177    0.17003    1.000
    Si5109   Si       0.82330    0.85736    0.22828    1.000
    Si5110   Si       0.82982    0.78507    0.23901    1.000
    N5111    N        0.85612    0.80143    0.13750    1.000
    N5112    N        0.84981    0.84179    0.19508    1.000
    N5113    N        0.81917    0.77958    0.19550    1.000
    N5114    N        0.87133    0.76914    0.24028    1.000
    N5115    N        0.82054    0.94030    0.20223    1.000
    N5116    N        0.86178    0.91651    0.12552    1.000
    Si5117   Si       0.83745    0.97561    0.18154    1.000
    Si5118   Si       0.85527    0.92283    0.22187    1.000
    Si5119   Si       0.85758    0.78381    0.33311    1.000
    N5120    N        0.81748    0.79105    0.31715    1.000
    N5121    N        0.82241    0.82527    0.25627    1.000
    Si5122   Si       0.84091    0.89577    0.29438    1.000
    N5123    N        0.83337    0.93832    0.29956    1.000
    Si5124   Si       0.83078    0.94412    0.34434    1.000
    N5125    N        0.86904    0.94503    0.36502    1.000
    N5126    N        0.85991    0.00461    0.28028    1.000
    Si5127   Si       0.86489    0.96184    0.28187    1.000
    N5128    N        0.84258    0.89295    0.25023    1.000
    N5129    N        0.86179    0.76560    0.37423    1.000
    Si5130   Si       0.82908    0.77412    0.40508    1.000
    N5131    N        0.83492    0.82231    0.47899    1.000
    Si5132   Si       0.83743    0.84607    0.44136    1.000
    Si5133   Si       0.85677    0.78360    0.47323    1.000
    N5134    N        0.85239    0.81535    0.41482    1.000
    N5135    N        0.86346    0.87715    0.45550    1.000
    Si5136   Si       0.86191    0.90206    0.49156    1.000
    N5137    N        0.82731    0.92743    0.48513    1.000
    Si5138   Si       0.86662    0.95737    0.40682    1.000
    N5139    N        0.82689    0.93231    0.41399    1.000
    N5140    N        0.85264    0.98036    0.44326    1.000
    Si5141   Si       0.81732    0.95421    0.45158    1.000
    Si5142   Si       0.86690    0.00523    0.47405    1.000
    N5143    N        0.82241    0.81569    0.55021    1.000
    Si5144   Si       0.82589    0.84199    0.51661    1.000
    N5145    N        0.85315    0.82070    0.60780    1.000
    Si5146   Si       0.86129    0.80912    0.56786    1.000
    N5147    N        0.84360    0.87978    0.52370    1.000
    Si5148   Si       0.84877    0.86430    0.61337    1.000
    N5149    N        0.84438    0.76399    0.51308    1.000
    N5150    N        0.85970    0.95835    0.57264    1.000
    Si5151   Si       0.81633    0.95264    0.57003    1.000
    N5152    N        0.85459    0.00357    0.51526    1.000
    N5153    N        0.86214    0.86658    0.65652    1.000
    Si5154   Si       0.86571    0.82963    0.67742    1.000
    Si5155   Si       0.86455    0.78205    0.62571    1.000
    N5156    N        0.82753    0.81114    0.68424    1.000
    Si5157   Si       0.86175    0.90675    0.67402    1.000
    N5158    N        0.81932    0.91445    0.68071    1.000
    N5159    N        0.83154    0.00788    0.71683    1.000
    N5160    N        0.85487    0.81323    0.82039    1.000
    N5161    N        0.82417    0.80047    0.75632    1.000
    Si5162   Si       0.82015    0.87536    0.76925    1.000
    N5163    N        0.86357    0.86814    0.77245    1.000
    Si5164   Si       0.85323    0.80583    0.86459    1.000
    Si5165   Si       0.81598    0.81089    0.79898    1.000
    N5166    N        0.84583    0.95343    0.81875    1.000
    Si5167   Si       0.85109    0.94325    0.86237    1.000
    Si5168   Si       0.83617    0.99249    0.75676    1.000
    N5169    N        0.87010    0.96785    0.75563    1.000
    N5170    N        0.85889    0.76098    0.94159    1.000
    N5171    N        0.82284    0.82103    0.95270    1.000
    Si5172   Si       0.86314    0.79945    0.96027    1.000
    N5173    N        0.81867    0.87237    0.90168    1.000
    N5174    N        0.81564    0.80657    0.88319    1.000
    Si5175   Si       0.85794    0.87402    0.89072    1.000
    N5176    N        0.82917    0.92403    0.98682    1.000
    N5177    N        0.86382    0.97609    0.94815    1.000
    N5178    N        0.81317    0.94197    0.88198    1.000
    Si5179   Si       0.86782    0.94562    0.98074    1.000
    Si5180   Si       0.83012    0.00561    0.95052    1.000
    N5181    N        0.89818    0.05825    0.09033    1.000
    N5182    N        0.90500    0.02003    0.01499    1.000
    Si5183   Si       0.88440    0.10118    0.09964    1.000
    Si5184   Si       0.90602    0.06411    0.00803    1.000
    N5185    N        0.92421    0.12110    0.08361    1.000
    N5186    N        0.86932    0.07289    0.03171    1.000
    N5187    N        0.89608    0.16754    0.04203    1.000
    Si5188   Si       0.89926    0.19787    0.01119    1.000
    N5189    N        0.90326    0.22993    0.11880    1.000
    N5190    N        0.88341    0.11217    0.14308    1.000
    N5191    N        0.88256    0.03432    0.16860    1.000
    Si5192   Si       0.88190    0.10549    0.18534    1.000
    N5193    N        0.92131    0.09541    0.20032    1.000
    Si5194   Si       0.92519    0.08117    0.24263    1.000
    Si5195   Si       0.90498    0.14887    0.23456    1.000
    Si5196   Si       0.91464    0.22049    0.22610    1.000
    Si5197   Si       0.93018    0.22717    0.15552    1.000
    N5198    N        0.90121    0.21393    0.18543    1.000
    N5199    N        0.87611    0.14690    0.20322    1.000
    Si5200   Si       0.89841    0.02224    0.28863    1.000
    N5201    N        0.89600    0.06030    0.26827    1.000
    N5202    N        0.91621    0.12004    0.26659    1.000
    N5203    N        0.89984    0.02539    0.33352    1.000
    Si5204   Si       0.88070    0.09732    0.28717    1.000
    N5205    N        0.88412    0.09769    0.32860    1.000
    Si5206   Si       0.88249    0.06482    0.35610    1.000
    Si5207   Si       0.91992    0.01539    0.37033    1.000
    Si5208   Si       0.89740    0.19814    0.29370    1.000
    N5209    N        0.89642    0.16696    0.32384    1.000
    N5210    N        0.89904    0.18807    0.25215    1.000
    N5211    N        0.91111    0.09186    0.44172    1.000
    N5212    N        0.91777    0.05801    0.38321    1.000
    Si5213   Si       0.89501    0.07172    0.47706    1.000
    Si5214   Si       0.88555    0.12524    0.42650    1.000
    Si5215   Si       0.91628    0.25577    0.40591    1.000
    N5216    N        0.88738    0.13327    0.38267    1.000
    Si5217   Si       0.92386    0.18358    0.43473    1.000
    N5218    N        0.88715    0.16357    0.44805    1.000
    N5219    N        0.91782    0.22706    0.44231    1.000
    N5220    N        0.91868    0.04899    0.50842    1.000
    Si5221   Si       0.89375    0.12938    0.52907    1.000
    N5222    N        0.87660    0.10421    0.49833    1.000
    N5223    N        0.87736    0.13339    0.57013    1.000
    N5224    N        0.93223    0.11203    0.54160    1.000
    Si5225   Si       0.93032    0.00708    0.50717    1.000
    Si5226   Si       0.91458    0.13904    0.59166    1.000
    N5227    N        0.91326    0.23571    0.54175    1.000
    N5228    N        0.89993    0.16865    0.51342    1.000
    Si5229   Si       0.87961    0.24952    0.51723    1.000
    Si5230   Si       0.92763    0.19387    0.53581    1.000
    Si5231   Si       0.88939    0.02270    0.62097    1.000
    N5232    N        0.88776    0.05088    0.70802    1.000
    N5233    N        0.90879    0.05932    0.63682    1.000
    Si5234   Si       0.87874    0.06508    0.66805    1.000
    Si5235   Si       0.89511    0.07700    0.74329    1.000
    N5236    N        0.93233    0.09594    0.73734    1.000
    N5237    N        0.89439    0.15509    0.71734    1.000
    Si5238   Si       0.91409    0.23755    0.63895    1.000
    N5239    N        0.87662    0.22619    0.62100    1.000
    N5240    N        0.91281    0.23252    0.72480    1.000
    N5241    N        0.90076    0.16042    0.62925    1.000
    Si5242   Si       0.89486    0.19886    0.70216    1.000
    N5243    N        0.92301    0.20571    0.66858    1.000
    N5244    N        0.89936    0.05519    0.78163    1.000
    N5245    N        0.87402    0.03682    0.84671    1.000
    N5246    N        0.90172    0.13438    0.85418    1.000
    N5247    N        0.90472    0.15103    0.78395    1.000
    Si5248   Si       0.88638    0.23348    0.75918    1.000
    N5249    N        0.90242    0.22269    0.79805    1.000
    Si5250   Si       0.87514    0.16378    0.75739    1.000
    Si5251   Si       0.87275    0.23340    0.82849    1.000
    Si5252   Si       0.92774    0.14424    0.81813    1.000
    Si5253   Si       0.92770    0.06028    0.90851    1.000
    N5254    N        0.91882    0.09974    0.92755    1.000
    N5255    N        0.88217    0.07409    0.97195    1.000
    N5256    N        0.90201    0.02362    0.90246    1.000
    Si5257   Si       0.87699    0.10104    0.93598    1.000
    Si5258   Si       0.92405    0.12530    0.89178    1.000
    N5259    N        0.89813    0.16171    0.90849    1.000
    Si5260   Si       0.87725    0.16824    0.87127    1.000
    N5261    N        0.91568    0.25524    0.97379    1.000
    N5262    N        0.91907    0.23284    0.91254    1.000
    Si5263   Si       0.87566    0.17246    0.94328    1.000
    N5264    N        0.90677    0.18923    0.96978    1.000
    Si5265   Si       0.93003    0.22069    0.95312    1.000
    N5266    N        0.88757    0.29107    0.09804    1.000
    N5267    N        0.91522    0.35796    0.09304    1.000
    Si5268   Si       0.90734    0.32419    0.11762    1.000
    N5269    N        0.90008    0.26297    0.04252    1.000
    Si5270   Si       0.91384    0.25839    0.08498    1.000
    Si5271   Si       0.88227    0.38172    0.07739    1.000
    N5272    N        0.89731    0.41671    0.05506    1.000
    Si5273   Si       0.91085    0.44778    0.08192    1.000
    N5274    N        0.89010    0.48357    0.07743    1.000
    Si5275   Si       0.92042    0.40371    0.01922    1.000
    N5276    N        0.88052    0.33832    0.14656    1.000
    Si5277   Si       0.89122    0.34455    0.18847    1.000
    N5278    N        0.90305    0.26116    0.23709    1.000
    N5279    N        0.90921    0.45585    0.19275    1.000
    Si5280   Si       0.92372    0.46832    0.15275    1.000
    Si5281   Si       0.90237    0.41303    0.20460    1.000
    N5282    N        0.88706    0.42685    0.24429    1.000
    N5283    N        0.91088    0.43851    0.12458    1.000
    N5284    N        0.87979    0.38689    0.18360    1.000
    Si5285   Si       0.90698    0.46590    0.23553    1.000
    N5286    N        0.91410    0.33922    0.32000    1.000
    N5287    N        0.89559    0.27468    0.33384    1.000
    Si5288   Si       0.89149    0.30808    0.36205    1.000
    N5289    N        0.92747    0.32436    0.25528    1.000
    Si5290   Si       0.89069    0.30100    0.24732    1.000
    Si5291   Si       0.89340    0.47247    0.30803    1.000
    N5292    N        0.89816    0.49272    0.26796    1.000
    Si5293   Si       0.88419    0.40700    0.28217    1.000
    N5294    N        0.88130    0.50021    0.33850    1.000
    N5295    N        0.92637    0.39789    0.28872    1.000
    N5296    N        0.87197    0.43524    0.31485    1.000
    Si5297   Si       0.87843    0.31560    0.47883    1.000
    N5298    N        0.89735    0.27693    0.48711    1.000
    N5299    N        0.90700    0.33685    0.45589    1.000
    N5300    N        0.88182    0.28149    0.39744    1.000
    N5301    N        0.91436    0.33615    0.38604    1.000
    Si5302   Si       0.91809    0.37810    0.46677    1.000
    Si5303   Si       0.90460    0.44708    0.48688    1.000
    Si5304   Si       0.88152    0.50335    0.44550    1.000
    N5305    N        0.89292    0.46157    0.44715    1.000
    N5306    N        0.89446    0.40552    0.48770    1.000
    Si5307   Si       0.89140    0.43434    0.41402    1.000
    N5308    N        0.91404    0.39940    0.42401    1.000
    Si5309   Si       0.90126    0.49586    0.37612    1.000
    N5310    N        0.91628    0.45610    0.38402    1.000
    N5311    N        0.91318    0.29891    0.58078    1.000
    N5312    N        0.91167    0.37208    0.58116    1.000
    N5313    N        0.91815    0.44310    0.56542    1.000
    N5314    N        0.87827    0.46690    0.51394    1.000
    Si5315   Si       0.87486    0.44544    0.55192    1.000
    N5316    N        0.90321    0.36290    0.66012    1.000
    N5317    N        0.91923    0.27232    0.66661    1.000
    N5318    N        0.88428    0.46823    0.71110    1.000
    Si5319   Si       0.89613    0.42693    0.72283    1.000
    N5320    N        0.89552    0.44797    0.64083    1.000
    Si5321   Si       0.87925    0.49931    0.74314    1.000
    N5322    N        0.92371    0.41747    0.69127    1.000
    Si5323   Si       0.89739    0.47992    0.67091    1.000
    Si5324   Si       0.89811    0.40753    0.65772    1.000
    Si5325   Si       0.90282    0.30769    0.76362    1.000
    Si5326   Si       0.88664    0.36510    0.80602    1.000
    Si5327   Si       0.91330    0.29050    0.83975    1.000
    N5328    N        0.87888    0.34435    0.76767    1.000
    N5329    N        0.87441    0.27341    0.83928    1.000
    N5330    N        0.92904    0.37458    0.80319    1.000
    N5331    N        0.92580    0.30938    0.80096    1.000
    N5332    N        0.87410    0.27623    0.76409    1.000
    N5333    N        0.90429    0.45497    0.82714    1.000
    N5334    N        0.91851    0.42901    0.76065    1.000
    Si5335   Si       0.90062    0.45975    0.78437    1.000
    N5336    N        0.91259    0.49874    0.77059    1.000
    Si5337   Si       0.93082    0.45924    0.86023    1.000
    N5338    N        0.91539    0.31451    0.87688    1.000
    Si5339   Si       0.92007    0.36032    0.95898    1.000
    Si5340   Si       0.88674    0.28319    0.95859    1.000
    Si5341   Si       0.89334    0.33750    0.90630    1.000
    N5342    N        0.90591    0.32002    0.94709    1.000
    N5343    N        0.90734    0.37540    0.91933    1.000
    Si5344   Si       0.89723    0.48460    0.92224    1.000
    N5345    N        0.91228    0.44505    0.93503    1.000
    N5346    N        0.89755    0.38530    0.98653    1.000
    N5347    N        0.91770    0.49314    0.88496    1.000
    Si5348   Si       0.90421    0.41543    0.90531    1.000
    Si5349   Si       0.88328    0.59842    0.11001    1.000
    N5350    N        0.88217    0.54078    0.02743    1.000
    Si5351   Si       0.90503    0.51760    0.05482    1.000
    N5352    N        0.89378    0.63056    0.08308    1.000
    Si5353   Si       0.90870    0.71047    0.03669    1.000
    N5354    N        0.88438    0.73121    0.00489    1.000
    Si5355   Si       0.91768    0.66526    0.09476    1.000
    N5356    N        0.90286    0.74840    0.06316    1.000
    N5357    N        0.87534    0.67911    0.03567    1.000
    N5358    N        0.92114    0.58333    0.12585    1.000
    Si5359   Si       0.88427    0.59027    0.23829    1.000
    N5360    N        0.87746    0.59503    0.19552    1.000
    Si5361   Si       0.89406    0.63183    0.17688    1.000
    N5362    N        0.92785    0.58709    0.24217    1.000
    N5363    N        0.91339    0.51030    0.14418    1.000
    N5364    N        0.93090    0.74616    0.13260    1.000
    N5365    N        0.88921    0.68882    0.11694    1.000
    Si5366   Si       0.91786    0.68521    0.21190    1.000
    Si5367   Si       0.90228    0.71675    0.14642    1.000
    N5368    N        0.91439    0.72655    0.22614    1.000
    N5369    N        0.88041    0.66928    0.19593    1.000
    N5370    N        0.90018    0.56088    0.29574    1.000
    Si5371   Si       0.88683    0.60031    0.31036    1.000
    N5372    N        0.89278    0.60895    0.35299    1.000
    Si5373   Si       0.87587    0.52896    0.27779    1.000
    N5374    N        0.92245    0.63111    0.30139    1.000
    N5375    N        0.87000    0.62089    0.26479    1.000
    Si5376   Si       0.89400    0.65770    0.27761    1.000
    Si5377   Si       0.88990    0.73920    0.26804    1.000
    N5378    N        0.87400    0.69672    0.27263    1.000
    Si5379   Si       0.87534    0.65430    0.35656    1.000
    Si5380   Si       0.88993    0.57394    0.43114    1.000
    N5381    N        0.88373    0.59297    0.46921    1.000
    N5382    N        0.91215    0.53692    0.44745    1.000
    Si5383   Si       0.91721    0.61560    0.48742    1.000
    N5384    N        0.92557    0.58509    0.40830    1.000
    Si5385   Si       0.92700    0.54422    0.48988    1.000
    Si5386   Si       0.92596    0.61619    0.37804    1.000
    Si5387   Si       0.88303    0.66452    0.41852    1.000
    Si5388   Si       0.91971    0.74052    0.48946    1.000
    N5389    N        0.92597    0.72774    0.37790    1.000
    Si5390   Si       0.90679    0.67489    0.48828    1.000
    Si5391   Si       0.88323    0.72713    0.38032    1.000
    N5392    N        0.87766    0.70756    0.41803    1.000
    N5393    N        0.91572    0.65809    0.38990    1.000
    N5394    N        0.88203    0.71482    0.48650    1.000
    Si5395   Si       0.90975    0.54933    0.56011    1.000
    N5396    N        0.89448    0.59024    0.55653    1.000
    N5397    N        0.89749    0.53313    0.52083    1.000
    Si5398   Si       0.90018    0.60886    0.59801    1.000
    N5399    N        0.88459    0.53024    0.58964    1.000
    Si5400   Si       0.87361    0.62675    0.54348    1.000
    N5401    N        0.93057    0.56992    0.60910    1.000
    N5402    N        0.90188    0.64411    0.51753    1.000
    Si5403   Si       0.91285    0.74598    0.56990    1.000
    N5404    N        0.88347    0.71371    0.55739    1.000
    Si5405   Si       0.88756    0.68739    0.59184    1.000
    N5406    N        0.87261    0.64711    0.58253    1.000
    N5407    N        0.91767    0.59818    0.71958    1.000
    Si5408   Si       0.90749    0.55587    0.70866    1.000
    Si5409   Si       0.89099    0.55061    0.62909    1.000
    N5410    N        0.90969    0.56541    0.66754    1.000
    Si5411   Si       0.91717    0.60920    0.67790    1.000
    N5412    N        0.87446    0.51526    0.65224    1.000
    N5413    N        0.87186    0.53744    0.72438    1.000
    Si5414   Si       0.92222    0.70850    0.64478    1.000
    N5415    N        0.88519    0.63459    0.66952    1.000
    Si5416   Si       0.88231    0.72029    0.72570    1.000
    N5417    N        0.90865    0.71706    0.69049    1.000
    N5418    N        0.87874    0.70381    0.63213    1.000
    N5419    N        0.93023    0.75102    0.64377    1.000
    N5420    N        0.89477    0.56508    0.86093    1.000
    Si5421   Si       0.90505    0.61564    0.81751    1.000
    N5422    N        0.88268    0.63033    0.85009    1.000
    Si5423   Si       0.92183    0.53396    0.87106    1.000
    N5424    N        0.92002    0.63196    0.77912    1.000
    N5425    N        0.91111    0.73591    0.81904    1.000
    N5426    N        0.90728    0.70517    0.75974    1.000
    Si5427   Si       0.88135    0.71768    0.79364    1.000
    Si5428   Si       0.88429    0.53671    0.98291    1.000
    Si5429   Si       0.89214    0.60300    0.88214    1.000
    N5430    N        0.89774    0.57895    0.97310    1.000
    N5431    N        0.90780    0.51252    0.95570    1.000
    N5432    N        0.93001    0.61714    0.90059    1.000
    Si5433   Si       0.88939    0.73437    0.96088    1.000
    N5434    N        0.88965    0.64482    0.94975    1.000
    N5435    N        0.89026    0.70857    0.92347    1.000
    N5436    N        0.93027    0.74748    0.95228    1.000
    Si5437   Si       0.92983    0.64571    0.93470    1.000
    N5438    N        0.90474    0.84912    0.02068    1.000
    N5439    N        0.90506    0.87132    0.08577    1.000
    N5440    N        0.91843    0.80557    0.10849    1.000
    Si5441   Si       0.92670    0.76504    0.09444    1.000
    N5442    N        0.86705    0.79382    0.00118    1.000
    Si5443   Si       0.87259    0.76462    0.03596    1.000
    Si5444   Si       0.87219    0.87535    0.11320    1.000
    Si5445   Si       0.90378    0.88644    0.04522    1.000
    N5446    N        0.91043    0.96538    0.06944    1.000
    N5447    N        0.92267    0.86240    0.21561    1.000
    Si5448   Si       0.88770    0.86417    0.19181    1.000
    Si5449   Si       0.89708    0.81331    0.14540    1.000
    N5450    N        0.89152    0.85825    0.14922    1.000
    N5451    N        0.91137    0.79430    0.18227    1.000
    Si5452   Si       0.89390    0.75882    0.20342    1.000
    N5453    N        0.87596    0.95636    0.24063    1.000
    N5454    N        0.88597    0.90817    0.19427    1.000
    Si5455   Si       0.90749    0.00044    0.16609    1.000
    N5456    N        0.92946    0.92894    0.13461    1.000
    N5457    N        0.92907    0.00160    0.12968    1.000
    Si5458   Si       0.89096    0.92756    0.15516    1.000
    N5459    N        0.87907    0.96795    0.16944    1.000
    Si5460   Si       0.91543    0.97122    0.23214    1.000
    Si5461   Si       0.89956    0.84959    0.32172    1.000
    N5462    N        0.91238    0.84212    0.28277    1.000
    N5463    N        0.87570    0.82167    0.34576    1.000
    N5464    N        0.87616    0.88813    0.32024    1.000
    Si5465   Si       0.89484    0.92362    0.33875    1.000
    N5466    N        0.90065    0.95027    0.30343    1.000
    N5467    N        0.92862    0.99768    0.26708    1.000
    N5468    N        0.92004    0.79241    0.40499    1.000
    N5469    N        0.89903    0.79357    0.47563    1.000
    Si5470   Si       0.88735    0.81964    0.38830    1.000
    N5471    N        0.89934    0.86435    0.39862    1.000
    Si5472   Si       0.89819    0.89046    0.43369    1.000
    N5473    N        0.90262    0.99135    0.39989    1.000
    Si5474   Si       0.91907    0.97210    0.43477    1.000
    N5475    N        0.89858    0.93330    0.42638    1.000
    N5476    N        0.91108    0.99051    0.47285    1.000
    N5477    N        0.88374    0.83003    0.53881    1.000
    Si5478   Si       0.91051    0.80385    0.51772    1.000
    Si5479   Si       0.88760    0.87692    0.54826    1.000
    N5480    N        0.88415    0.77374    0.58537    1.000
    N5481    N        0.92034    0.76269    0.52809    1.000
    N5482    N        0.91668    0.99355    0.54782    1.000
    Si5483   Si       0.88246    0.92979    0.59783    1.000
    N5484    N        0.92484    0.93413    0.58520    1.000
    N5485    N        0.90035    0.90428    0.51236    1.000
    Si5486   Si       0.87407    0.99656    0.55559    1.000
    N5487    N        0.87043    0.88916    0.58641    1.000
    Si5488   Si       0.90166    0.80179    0.73071    1.000
    Si5489   Si       0.88791    0.87468    0.73754    1.000
    N5490    N        0.88872    0.79595    0.65969    1.000
    N5491    N        0.88603    0.83959    0.71345    1.000
    N5492    N        0.87543    0.76479    0.71961    1.000
    Si5493   Si       0.90887    0.76286    0.68130    1.000
    N5494    N        0.88103    0.91146    0.71324    1.000
    N5495    N        0.89272    0.97491    0.69367    1.000
    Si5496   Si       0.91003    0.96041    0.65546    1.000
    Si5497   Si       0.89970    0.95091    0.72724    1.000
    N5498    N        0.88011    0.93086    0.64257    1.000
    N5499    N        0.91172    0.98650    0.62060    1.000
    N5500    N        0.90792    0.81280    0.77174    1.000
    N5501    N        0.91118    0.85888    0.82535    1.000
    Si5502   Si       0.88464    0.83920    0.79863    1.000
    Si5503   Si       0.90907    0.76306    0.85053    1.000
    N5504    N        0.86989    0.76566    0.86789    1.000
    N5505    N        0.91158    0.92678    0.80562    1.000
    Si5506   Si       0.90647    0.90030    0.83977    1.000
    Si5507   Si       0.88347    0.96068    0.79832    1.000
    N5508    N        0.90954    0.99212    0.81111    1.000
    Si5509   Si       0.90596    0.00596    0.85462    1.000
    N5510    N        0.87107    0.90385    0.86260    1.000
    N5511    N        0.87901    0.83583    0.88387    1.000
    Si5512   Si       0.90637    0.84640    0.91854    1.000
    N5513    N        0.90081    0.81184    0.94557    1.000
    N5514    N        0.87830    0.97468    0.87164    1.000
    Si5515   Si       0.88809    0.98153    0.91287    1.000
    N5516    N        0.90598    0.92477    0.97844    1.000
    Si5517   Si       0.91191    0.90800    0.93877    1.000
    N5518    N        0.91504    0.94766    0.91765    1.000
    N5519    N        0.87848    0.88264    0.92950    1.000
    Si5520   Si       0.95740    0.10607    0.10832    1.000
    Si5521   Si       0.97717    0.11452    0.00735    1.000
    N5522    N        0.95088    0.01969    0.06912    1.000
    N5523    N        0.94220    0.08763    0.00577    1.000
    Si5524   Si       0.93349    0.03764    0.10415    1.000
    N5525    N        0.96161    0.06523    0.11890    1.000
    N5526    N        0.96068    0.15229    0.02217    1.000
    N5527    N        0.96210    0.18319    0.08410    1.000
    Si5528   Si       0.98094    0.22169    0.06515    1.000
    N5529    N        0.93742    0.21496    0.02337    1.000
    Si5530   Si       0.93488    0.15790    0.05809    1.000
    Si5531   Si       0.96949    0.19396    0.00309    1.000
    N5532    N        0.98876    0.03338    0.17871    1.000
    Si5533   Si       0.95452    0.12058    0.18618    1.000
    N5534    N        0.95902    0.05598    0.23923    1.000
    N5535    N        0.95516    0.13168    0.14474    1.000
    Si5536   Si       0.98094    0.24862    0.20724    1.000
    Si5537   Si       0.97341    0.17459    0.23587    1.000
    Si5538   Si       0.97558    0.16653    0.12367    1.000
    N5539    N        0.94284    0.15185    0.21363    1.000
    N5540    N        0.95825    0.21542    0.22659    1.000
    N5541    N        0.96516    0.19842    0.15342    1.000
    Si5542   Si       0.96849    0.01894    0.26078    1.000
    N5543    N        0.98254    0.10264    0.28934    1.000
    Si5544   Si       0.94937    0.13261    0.29234    1.000
    N5545    N        0.95305    0.13254    0.33686    1.000
    Si5546   Si       0.98876    0.10715    0.33474    1.000
    N5547    N        0.99095    0.06531    0.34969    1.000
    N5548    N        0.96937    0.16828    0.27743    1.000
    Si5549   Si       0.97385    0.20193    0.30566    1.000
    N5550    N        0.93371    0.21832    0.30929    1.000
    Si5551   Si       0.93508    0.25449    0.33200    1.000
    N5552    N        0.98866    0.19748    0.34623    1.000
    N5553    N        0.94253    0.24561    0.37223    1.000
    N5554    N        0.95504    0.12243    0.40018    1.000
    Si5555   Si       0.93958    0.08278    0.41129    1.000
    N5556    N        0.97292    0.05534    0.42063    1.000
    Si5557   Si       0.93001    0.14605    0.37137    1.000
    N5558    N        0.93591    0.18280    0.39141    1.000
    Si5559   Si       0.96716    0.21226    0.38164    1.000
    Si5560   Si       0.98399    0.14262    0.42458    1.000
    N5561    N        0.96063    0.16789    0.45096    1.000
    Si5562   Si       0.98141    0.17824    0.48785    1.000
    N5563    N        0.99164    0.22656    0.41461    1.000
    Si5564   Si       0.93180    0.26202    0.46624    1.000
    N5565    N        0.95993    0.05495    0.57574    1.000
    Si5566   Si       0.94594    0.07086    0.53584    1.000
    N5567    N        0.94354    0.11328    0.61244    1.000
    N5568    N        0.98400    0.07347    0.51295    1.000
    Si5569   Si       0.94607    0.06882    0.61753    1.000
    Si5570   Si       0.98250    0.13251    0.61609    1.000
    Si5571   Si       0.96717    0.13911    0.54658    1.000
    N5572    N        0.94289    0.23468    0.60504    1.000
    Si5573   Si       0.96956    0.19982    0.59520    1.000
    N5574    N        0.96508    0.20375    0.51569    1.000
    N5575    N        0.94208    0.17142    0.57019    1.000
    Si5576   Si       0.98431    0.24388    0.51757    1.000
    N5577    N        0.98316    0.14125    0.50872    1.000
    N5578    N        0.97759    0.04796    0.63981    1.000
    N5579    N        0.95656    0.14635    0.68555    1.000
    N5580    N        0.96978    0.17209    0.62775    1.000
    Si5581   Si       0.93414    0.13547    0.72002    1.000
    Si5582   Si       0.93508    0.16586    0.65469    1.000
    N5583    N        0.97358    0.25532    0.71274    1.000
    N5584    N        0.95503    0.03817    0.82242    1.000
    N5585    N        0.95289    0.10969    0.81080    1.000
    Si5586   Si       0.96063    0.10786    0.76771    1.000
    Si5587   Si       0.96800    0.07839    0.83653    1.000
    N5588    N        0.96028    0.01575    0.76050    1.000
    Si5589   Si       0.92774    0.02397    0.78894    1.000
    N5590    N        0.95116    0.17834    0.83291    1.000
    N5591    N        0.97505    0.22708    0.78695    1.000
    Si5592   Si       0.94253    0.21915    0.81549    1.000
    N5593    N        0.93568    0.25209    0.84429    1.000
    N5594    N        0.96610    0.14646    0.75004    1.000
    Si5595   Si       0.97927    0.17662    0.86825    1.000
    N5596    N        0.94328    0.08190    0.87365    1.000
    N5597    N        0.97566    0.11855    0.96282    1.000
    N5598    N        0.94947    0.04855    0.94570    1.000
    Si5599   Si       0.94374    0.08949    0.95996    1.000
    Si5600   Si       0.97756    0.01539    0.94781    1.000
    N5601    N        0.97181    0.20646    0.96273    1.000
    N5602    N        0.96333    0.14764    0.89687    1.000
    N5603    N        0.97843    0.21317    0.88975    1.000
    Si5604   Si       0.94984    0.24484    0.88465    1.000
    Si5605   Si       0.97476    0.29090    0.10058    1.000
    Si5606   Si       0.95542    0.36291    0.07750    1.000
    Si5607   Si       0.97998    0.36459    0.00878    1.000
    N5608    N        0.98095    0.32812    0.07920    1.000
    N5609    N        0.94910    0.37665    0.03650    1.000
    N5610    N        0.97340    0.27448    0.00933    1.000
    Si5611   Si       0.93370    0.25858    0.01329    1.000
    N5612    N        0.95913    0.25726    0.07776    1.000
    N5613    N        0.97571    0.39118    0.10193    1.000
    Si5614   Si       0.95639    0.46643    0.03230    1.000
    N5615    N        0.95240    0.45079    0.07457    1.000
    Si5616   Si       0.97560    0.43764    0.10937    1.000
    N5617    N        0.93988    0.44021    0.00210    1.000
    N5618    N        0.94040    0.50647    0.02974    1.000
    Si5619   Si       0.95449    0.30145    0.17001    1.000
    Si5620   Si       0.94892    0.35123    0.22545    1.000
    N5621    N        0.94313    0.30166    0.12892    1.000
    N5622    N        0.94917    0.25962    0.17774    1.000
    N5623    N        0.93286    0.33173    0.19038    1.000
    N5624    N        0.93820    0.39242    0.22093    1.000
    N5625    N        0.96819    0.46449    0.14317    1.000
    N5626    N        0.95839    0.27983    0.30634    1.000
    N5627    N        0.97330    0.34756    0.30674    1.000
    Si5628   Si       0.94275    0.31927    0.29447    1.000
    Si5629   Si       0.94073    0.37393    0.32123    1.000
    Si5630   Si       0.94995    0.41363    0.25662    1.000
    Si5631   Si       0.95393    0.48699    0.28231    1.000
    Si5632   Si       0.94173    0.43938    0.34929    1.000
    N5633    N        0.94122    0.39613    0.35711    1.000
    N5634    N        0.93512    0.46568    0.31469    1.000
    N5635    N        0.94727    0.45596    0.24996    1.000
    N5636    N        0.97648    0.45530    0.36979    1.000
    N5637    N        0.94277    0.28338    0.42890    1.000
    N5638    N        0.96222    0.35643    0.42316    1.000
    N5639    N        0.95725    0.37660    0.48790    1.000
    Si5640   Si       0.98213    0.26415    0.43337    1.000
    Si5641   Si       0.93277    0.37444    0.39357    1.000
    Si5642   Si       0.93231    0.32374    0.42457    1.000
    Si5643   Si       0.98648    0.37298    0.45310    1.000
    N5644    N        0.97489    0.25808    0.47656    1.000
    N5645    N        0.94782    0.44717    0.49811    1.000
    Si5646   Si       0.95390    0.47665    0.39949    1.000
    N5647    N        0.97397    0.47980    0.43737    1.000
    Si5648   Si       0.98127    0.44606    0.46760    1.000
    N5649    N        0.96410    0.33986    0.54894    1.000
    N5650    N        0.97179    0.27153    0.55118    1.000
    Si5651   Si       0.97178    0.37716    0.52726    1.000
    N5652    N        0.96122    0.33870    0.61665    1.000
    Si5653   Si       0.93560    0.33743    0.58096    1.000
    Si5654   Si       0.93575    0.26140    0.56912    1.000
    Si5655   Si       0.95431    0.44837    0.54022    1.000
    N5656    N        0.96672    0.40881    0.55392    1.000
    N5657    N        0.97221    0.46293    0.61537    1.000
    N5658    N        0.98461    0.48089    0.55043    1.000
    Si5659   Si       0.93628    0.40900    0.58626    1.000
    Si5660   Si       0.93336    0.26642    0.70675    1.000
    N5661    N        0.93219    0.30386    0.73056    1.000
    N5662    N        0.94362    0.37219    0.73462    1.000
    Si5663   Si       0.96633    0.33375    0.73425    1.000
    Si5664   Si       0.94631    0.36380    0.64836    1.000
    N5665    N        0.97469    0.36635    0.67863    1.000
    N5666    N        0.98361    0.42012    0.73951    1.000
    N5667    N        0.98610    0.43396    0.67696    1.000
    N5668    N        0.93852    0.48547    0.67254    1.000
    N5669    N        0.94448    0.40545    0.62848    1.000
    Si5670   Si       0.96291    0.40287    0.70377    1.000
    Si5671   Si       0.95320    0.44860    0.65078    1.000
    N5672    N        0.97590    0.32719    0.84137    1.000
    Si5673   Si       0.95685    0.33976    0.80407    1.000
    N5674    N        0.98557    0.34279    0.77197    1.000
    Si5675   Si       0.94953    0.39743    0.76967    1.000
    N5676    N        0.97120    0.46552    0.84168    1.000
    N5677    N        0.98243    0.41274    0.80155    1.000
    Si5678   Si       0.97615    0.42229    0.84439    1.000
    Si5679   Si       0.98212    0.50409    0.82362    1.000
    N5680    N        0.97899    0.50682    0.77962    1.000
    Si5681   Si       0.95761    0.32103    0.88172    1.000
    N5682    N        0.97257    0.35464    0.90532    1.000
    N5683    N        0.96814    0.28191    0.89964    1.000
    N5684    N        0.96108    0.35907    0.97096    1.000
    N5685    N        0.96858    0.48587    0.95354    1.000
    Si5686   Si       0.94738    0.44763    0.95958    1.000
    Si5687   Si       0.96603    0.39736    0.90274    1.000
    N5688    N        0.97356    0.42085    0.93862    1.000
    N5689    N        0.93932    0.42039    0.87729    1.000
    Si5690   Si       0.96292    0.54091    0.04714    1.000
    N5691    N        0.95693    0.57901    0.02278    1.000
    N5692    N        0.97851    0.59419    0.08444    1.000
    N5693    N        0.93459    0.53786    0.08177    1.000
    Si5694   Si       0.98209    0.60816    0.04278    1.000
    N5695    N        0.94649    0.71082    0.00838    1.000
    Si5696   Si       0.96927    0.68415    0.03466    1.000
    N5697    N        0.97746    0.64426    0.01919    1.000
    N5698    N        0.93708    0.68598    0.06354    1.000
    Si5699   Si       0.95798    0.60826    0.11877    1.000
    Si5700   Si       0.93394    0.54245    0.12529    1.000
    N5701    N        0.97302    0.56754    0.20327    1.000
    Si5702   Si       0.95734    0.60692    0.21682    1.000
    N5703    N        0.97353    0.53666    0.14307    1.000
    Si5704   Si       0.98450    0.53274    0.22696    1.000
    N5705    N        0.93678    0.63210    0.18437    1.000
    N5706    N        0.95000    0.65171    0.12055    1.000
    Si5707   Si       0.95963    0.73421    0.16401    1.000
    N5708    N        0.98563    0.63737    0.23223    1.000
    N5709    N        0.93477    0.69692    0.17091    1.000
    Si5710   Si       0.96023    0.66064    0.16147    1.000
    N5711    N        0.96367    0.75633    0.20122    1.000
    Si5712   Si       0.96491    0.62016    0.31109    1.000
    N5713    N        0.95890    0.52678    0.26245    1.000
    N5714    N        0.96447    0.61448    0.35552    1.000
    Si5715   Si       0.93974    0.56342    0.27500    1.000
    N5716    N        0.97463    0.58446    0.29064    1.000
    Si5717   Si       0.97102    0.66739    0.26020    1.000
    N5718    N        0.97292    0.71821    0.32388    1.000
    N5719    N        0.98756    0.65435    0.29947    1.000
    N5720    N        0.93234    0.74680    0.27866    1.000
    N5721    N        0.98226    0.67463    0.36924    1.000
    N5722    N        0.93036    0.66695    0.24896    1.000
    Si5723   Si       0.95703    0.73748    0.24293    1.000
    N5724    N        0.93683    0.51594    0.39010    1.000
    N5725    N        0.97928    0.55418    0.43647    1.000
    Si5726   Si       0.94227    0.54681    0.41746    1.000
    N5727    N        0.94381    0.58374    0.49264    1.000
    N5728    N        0.96239    0.52044    0.49487    1.000
    N5729    N        0.98967    0.63094    0.42504    1.000
    Si5730   Si       0.94713    0.69105    0.38799    1.000
    N5731    N        0.93589    0.64728    0.46551    1.000
    Si5732   Si       0.97945    0.73411    0.43931    1.000
    Si5733   Si       0.97329    0.66027    0.45204    1.000
    N5734    N        0.94928    0.75588    0.46117    1.000
    N5735    N        0.96377    0.69596    0.42933    1.000
    N5736    N        0.95288    0.55225    0.55271    1.000
    Si5737   Si       0.96018    0.59311    0.57947    1.000
    Si5738   Si       0.97830    0.52160    0.53699    1.000
    N5739    N        0.97715    0.61136    0.54414    1.000
    Si5740   Si       0.98276    0.58108    0.51363    1.000
    N5741    N        0.93863    0.63165    0.59153    1.000
    Si5742   Si       0.96303    0.66991    0.59146    1.000
    Si5743   Si       0.97829    0.70348    0.51837    1.000
    N5744    N        0.98132    0.67809    0.55311    1.000
    N5745    N        0.93956    0.70294    0.50194    1.000
    N5746    N        0.93097    0.69905    0.59955    1.000
    N5747    N        0.94171    0.53371    0.72267    1.000
    Si5748   Si       0.96330    0.57332    0.63773    1.000
    N5749    N        0.95657    0.61192    0.65794    1.000
    N5750    N        0.98193    0.54046    0.65997    1.000
    Si5751   Si       0.96506    0.51416    0.69101    1.000
    N5752    N        0.95124    0.66234    0.72959    1.000
    N5753    N        0.95509    0.68160    0.66235    1.000
    Si5754   Si       0.98086    0.64668    0.65581    1.000
    Si5755   Si       0.94481    0.69666    0.70361    1.000
    N5756    N        0.97451    0.72444    0.71966    1.000
    Si5757   Si       0.98525    0.75968    0.74222    1.000
    N5758    N        0.95228    0.53249    0.83963    1.000
    Si5759   Si       0.95987    0.57113    0.82174    1.000
    Si5760   Si       0.94477    0.52695    0.76529    1.000
    Si5761   Si       0.94093    0.60391    0.75640    1.000
    N5762    N        0.94375    0.60812    0.83749    1.000
    N5763    N        0.94240    0.56759    0.78118    1.000
    N5764    N        0.98344    0.60996    0.75365    1.000
    N5765    N        0.97769    0.72925    0.84037    1.000
    Si5766   Si       0.95207    0.73138    0.80432    1.000
    N5767    N        0.96171    0.68945    0.79637    1.000
    N5768    N        0.98249    0.66482    0.86767    1.000
    Si5769   Si       0.93467    0.67080    0.76856    1.000
    Si5770   Si       0.96494    0.62474    0.87122    1.000
    N5771    N        0.94160    0.54831    0.90662    1.000
    Si5772   Si       0.93888    0.58572    0.98359    1.000
    N5773    N        0.96443    0.55953    0.96044    1.000
    N5774    N        0.95670    0.61975    0.95782    1.000
    Si5775   Si       0.94709    0.52209    0.94163    1.000
    Si5776   Si       0.95662    0.58733    0.92308    1.000
    N5777    N        0.98934    0.59940    0.89497    1.000
    Si5778   Si       0.93341    0.71906    0.91629    1.000
    N5779    N        0.98597    0.72814    0.90704    1.000
    N5780    N        0.93180    0.75472    0.88849    1.000
    Si5781   Si       0.95653    0.74708    0.98735    1.000
    Si5782   Si       0.97316    0.75469    0.87439    1.000
    N5783    N        0.95310    0.68033    0.92505    1.000
    Si5784   Si       0.94858    0.85278    0.01841    1.000
    Si5785   Si       0.97773    0.79594    0.04630    1.000
    N5786    N        0.95829    0.83260    0.05520    1.000
    N5787    N        0.96557    0.78416    0.00538    1.000
    N5788    N        0.96623    0.76523    0.07540    1.000
    Si5789   Si       0.93693    0.84209    0.09171    1.000
    N5790    N        0.95821    0.96834    0.01894    1.000
    N5791    N        0.97627    0.96446    0.09559    1.000
    N5792    N        0.94282    0.89697    0.02781    1.000
    Si5793   Si       0.94343    0.93140    0.99896    1.000
    Si5794   Si       0.93329    0.96347    0.10657    1.000
    Si5795   Si       0.92933    0.99434    0.04079    1.000
    N5796    N        0.96208    0.85883    0.12454    1.000
    N5797    N        0.98262    0.81611    0.17491    1.000
    Si5798   Si       0.95223    0.79742    0.20079    1.000
    N5799    N        0.96070    0.81109    0.24223    1.000
    N5800    N        0.97214    0.90203    0.18634    1.000
    Si5801   Si       0.96295    0.89929    0.14287    1.000
    N5802    N        0.93636    0.98565    0.19655    1.000
    Si5803   Si       0.94642    0.90134    0.22185    1.000
    N5804    N        0.93947    0.93679    0.24606    1.000
    Si5805   Si       0.97971    0.99409    0.19020    1.000
    N5806    N        0.95466    0.78067    0.34106    1.000
    Si5807   Si       0.97129    0.82074    0.34349    1.000
    N5808    N        0.93727    0.84776    0.34608    1.000
    Si5809   Si       0.94025    0.84627    0.25242    1.000
    N5810    N        0.97060    0.87786    0.25109    1.000
    Si5811   Si       0.96184    0.75497    0.30783    1.000
    N5812    N        0.97027    0.95910    0.31471    1.000
    Si5813   Si       0.97354    0.92744    0.34609    1.000
    Si5814   Si       0.93888    0.95697    0.28655    1.000
    N5815    N        0.93302    0.91732    0.35687    1.000
    Si5816   Si       0.97180    0.86289    0.44387    1.000
    N5817    N        0.96756    0.81968    0.44165    1.000
    Si5818   Si       0.94886    0.76350    0.37947    1.000
    N5819    N        0.98242    0.76268    0.40413    1.000
    Si5820   Si       0.93391    0.87746    0.37706    1.000
    N5821    N        0.96973    0.87842    0.40243    1.000
    N5822    N        0.93247    0.87894    0.45723    1.000
    Si5823   Si       0.93205    0.79409    0.44577    1.000
    Si5824   Si       0.98680    0.97876    0.39921    1.000
    Si5825   Si       0.97949    0.96803    0.47223    1.000
    N5826    N        0.96286    0.97036    0.43331    1.000
    N5827    N        0.96619    0.93063    0.48722    1.000
    N5828    N        0.96441    0.00822    0.37370    1.000
    N5829    N        0.95246    0.81202    0.52709    1.000
    Si5830   Si       0.96516    0.84816    0.54583    1.000
    Si5831   Si       0.96304    0.77253    0.54170    1.000
    N5832    N        0.97270    0.87202    0.51055    1.000
    N5833    N        0.95178    0.76554    0.58322    1.000
    N5834    N        0.93303    0.87316    0.56450    1.000
    Si5835   Si       0.95268    0.90154    0.58762    1.000
    N5836    N        0.97505    0.98756    0.58908    1.000
    Si5837   Si       0.93358    0.97557    0.58362    1.000
    Si5838   Si       0.93856    0.89573    0.49754    1.000
    N5839    N        0.97271    0.99986    0.49957    1.000
    Si5840   Si       0.98761    0.84367    0.62331    1.000
    N5841    N        0.93579    0.78479    0.70824    1.000
    Si5842   Si       0.96350    0.77139    0.62412    1.000
    N5843    N        0.97680    0.84306    0.70848    1.000
    Si5844   Si       0.97112    0.80369    0.69119    1.000
    N5845    N        0.97415    0.81030    0.64585    1.000
    N5846    N        0.97000    0.88600    0.62634    1.000
    N5847    N        0.94873    0.94323    0.66236    1.000
    Si5848   Si       0.98300    0.92064    0.65230    1.000
    Si5849   Si       0.94506    0.80339    0.79083    1.000
    N5850    N        0.97342    0.83340    0.78232    1.000
    N5851    N        0.97194    0.85494    0.85388    1.000
    N5852    N        0.96162    0.76449    0.77817    1.000
    N5853    N        0.93452    0.79538    0.83376    1.000
    Si5854   Si       0.93132    0.83452    0.85537    1.000
    N5855    N        0.93004    0.87760    0.75141    1.000
    Si5856   Si       0.98859    0.85875    0.81299    1.000
    Si5857   Si       0.97134    0.86186    0.74817    1.000
    Si5858   Si       0.93859    0.95561    0.82858    1.000
    N5859    N        0.97399    0.89879    0.79833    1.000
    N5860    N        0.94067    0.92032    0.85921    1.000
    N5861    N        0.97346    0.96687    0.80436    1.000
    Si5862   Si       0.93810    0.91207    0.77496    1.000
    Si5863   Si       0.96832    0.97339    0.75926    1.000
    N5864    N        0.94528    0.98367    0.86286    1.000
    Si5865   Si       0.97699    0.89591    0.86968    1.000
    N5866    N        0.93631    0.94724    0.74855    1.000
    Si5867   Si       0.98623    0.00481    0.82767    1.000
    N5868    N        0.93701    0.87472    0.93255    1.000
    N5869    N        0.97815    0.79255    0.93680    1.000
    N5870    N        0.97408    0.85213    0.98229    1.000
    N5871    N        0.93893    0.81971    0.89522    1.000
    Si5872   Si       0.98306    0.82012    0.89868    1.000
    Si5873   Si       0.93137    0.78541    0.92572    1.000
    Si5874   Si       0.98650    0.81078    0.97599    1.000
    Si5875   Si       0.97737    0.88047    0.94744    1.000
    N5876    N        0.98007    0.91828    0.90651    1.000
    N5877    N        0.97106    0.92035    0.96912    1.000
    N5878    N        0.97924    0.97700    0.92552    1.000
    Si5879   Si       0.95243    0.95266    0.89517    1.000
